# Blanquart et al Mechanism - Version V2.3 downloaded 6-26-2018 from
# http://www.theforce.caltech.edu/CaltechMech/index.html

units(length='cm', time='s', quantity='mol', act_energy='cal/mol')

ideal_gas(name='gas',
          elements="N H O C Ar",
          species="""N2         H          O2         O          OH
                     H2         H2O        CO2        AR         HO2
                     H2O2       CO         HCO        S-OH       CH
                     C          S-CH       C2H        T-CH2      CH3
                     CH2O       HCCO       CH2CO      C2H2       S-CH2
                     CH4        CH3O       CH3O2      C2H3       C2H4
                     C2H5       CH2OH      CH3OH      H2C2       CH2CHO
                     CH3CHO     N-C3H7     C2H6       C2H5O      C3H6
                     I-C3H7     C3H8       C3H2       C4H2       N-C4H3
                     C4H4       C3H2O      C3H3       C2H3CHO    A-C3H4
                     P-C3H4     I-C4H3     A-C3H5     T-C3H5     S-C3H5
                     C3H5O      C4H        C4H2O      C6H2       C8H2
                     C4H6       I-C4H5     N-C4H5     D-C4H6     S-C4H5
                     S-C4H6     A1CH3      A1CH3*     N-C6H14    N-C5H11
                     N-C4H9     C6H13      C4H8       C5H10      C6H12
                     C6H13O     C6H13O2    C6H12OOH   C6H12O     C6H13O4
                     OC6H11OOH  N-C7H16    N-C6H13    C7H15      C7H14
                     C7H15O     C7H15O2    C7H14OOH   C7H14O     C7H15O4
                     OC7H13OOH  N-C12H26   N-C10H21   N-C9H19    N-C8H17
                     N-C7H15    C12H25     C8H16      C9H18      C10H20
                     C12H24     C12H25O    C4H7       C5H9       C7H13
                     C8H15      C12H23     C10H19     C9H17      C12H25O2
                     C12H24OOH  C12H24O    C12H25O4   C12H24O3   C8H17O2
                     C8H16OOH   C8H16O     C8H17O4    C8H16O3    C6H11
                     I-C8H18    Y-C7H15    T-C4H8     T-C4H9     C-C8H17
                     Y-C7H14    D-C8H17O   CH3COCH3   T-C4H7     X-C7H13
                     C5H6       C5H5       C5H4CH2    A2         C9H7
                     C9H8       C5H5O      C5H4O      A1         A1-
                     A1OH       A1O        O-C6H4     OC6H4O     A1CH2
                     OA1CH3     HOA1CH3    A1CHO      A1CH2O     A1C2H3
                     A1C2H2     A1C2H3*    A1C2H      A1C2H*     A1C2H4
                     A1C2H5     A1CH3CH3   A1CH3CH2   A1CH3CHO   A2CH3
                     A1CHOCH2   A1CHOCHO   A3         C9H6O      A2R5
                     A2-        A2*        A2O        A2OH       A2CH2
                     A2CHO      A2CH2O     A2C2HA     A2C2HB     A2C2H2A
                     A2C2H2B    A2C2HA*    A2C2HB*    A2R5-      A2R5C2H
                     A2R5C2H2   A2R5C2H*   P2         P2-        A3-
                     A3*        A3R5-      A3R5       A4         A4-
                     A4R5       FLTN       C2O        A1CH2OH""",
          reactions='all',
          transport='Mix',
          initial_state=state(temperature=300.0, pressure=OneAtm))

#-------------------------------------------------------------------------------
# Species data
#-------------------------------------------------------------------------------

species(name='N2',
        atoms='N:2',
        thermo=(NASA([200.00, 1000.00],
                     [ 3.53100528E+00, -1.23660988E-04, -5.02999433E-07,
                       2.43530612E-09, -1.40881235E-12, -1.04697628E+03,
                       2.96747038E+00]),
                NASA([1000.00, 6000.00],
                     [ 2.95257637E+00,  1.39690040E-03, -4.92631603E-07,
                       7.86010195E-11, -4.60755204E-15, -9.23948688E+02,
                       5.87188762E+00])),
        transport=gas_transport(geom='linear',
                                diam=3.621,
                                well_depth=97.53,
                                polar=1.76,
                                rot_relax=4.0),
        note='REFELEMENTG8/02')

species(name='H',
        atoms='H:1',
        thermo=(NASA([200.00, 1000.00],
                     [ 2.50000000E+00,  0.00000000E+00,  0.00000000E+00,
                       0.00000000E+00,  0.00000000E+00,  2.54736600E+04,
                      -4.46682850E-01]),
                NASA([1000.00, 6000.00],
                     [ 2.50000000E+00,  0.00000000E+00,  0.00000000E+00,
                       0.00000000E+00,  0.00000000E+00,  2.54736600E+04,
                      -4.46682850E-01])),
        transport=gas_transport(geom='atom',
                                diam=2.05,
                                well_depth=145.0),
        note='L6/94')

species(name='O2',
        atoms='O:2',
        thermo=(NASA([200.00, 1000.00],
                     [ 3.78245636E+00, -2.99673416E-03,  9.84730201E-06,
                      -9.68129509E-09,  3.24372837E-12, -1.06394356E+03,
                       3.65767573E+00]),
                NASA([1000.00, 6000.00],
                     [ 3.66096065E+00,  6.56365811E-04, -1.41149627E-07,
                       2.05797935E-11, -1.29913436E-15, -1.21597718E+03,
                       3.41536279E+00])),
        transport=gas_transport(geom='linear',
                                diam=3.458,
                                well_depth=107.4,
                                polar=1.6,
                                rot_relax=3.8),
        note='REFELEMENTTPIS89')

species(name='O',
        atoms='O:1',
        thermo=(NASA([200.00, 1000.00],
                     [ 3.16826710E+00, -3.27931884E-03,  6.64306396E-06,
                      -6.12806624E-09,  2.11265971E-12,  2.91222592E+04,
                       2.05193346E+00]),
                NASA([1000.00, 6000.00],
                     [ 2.54363697E+00, -2.73162486E-05, -4.19029520E-09,
                       4.95481845E-12, -4.79553694E-16,  2.92260120E+04,
                       4.92229457E+00])),
        transport=gas_transport(geom='atom',
                                diam=2.75,
                                well_depth=80.0),
        note='L1/90')

species(name='OH',
        atoms='H:1 O:1',
        thermo=(NASA([200.00, 1000.00],
                     [ 3.99198424E+00, -2.40106655E-03,  4.61664033E-06,
                      -3.87916306E-09,  1.36319502E-12,  3.36889836E+03,
                      -1.03998477E-01]),
                NASA([1000.00, 6000.00],
                     [ 2.83853033E+00,  1.10741289E-03, -2.94000209E-07,
                       4.20698729E-11, -2.42289890E-15,  3.69780808E+03,
                       5.84494652E+00])),
        transport=gas_transport(geom='linear',
                                diam=2.75,
                                well_depth=80.0),
        note='IU3/03')

species(name='H2',
        atoms='H:2',
        thermo=(NASA([200.00, 1000.00],
                     [ 2.34433112E+00,  7.98052075E-03, -1.94781510E-05,
                       2.01572094E-08, -7.37611761E-12, -9.17935173E+02,
                       6.83010238E-01]),
                NASA([1000.00, 6000.00],
                     [ 2.93286575E+00,  8.26608026E-04, -1.46402364E-07,
                       1.54100414E-11, -6.88804800E-16, -8.13065581E+02,
                      -1.02432865E+00])),
        transport=gas_transport(geom='linear',
                                diam=2.92,
                                well_depth=38.0,
                                polar=0.79,
                                rot_relax=280.0),
        note='REFELEMENTtpis78')

species(name='H2O',
        atoms='H:2 O:1',
        thermo=(NASA([200.00, 1000.00],
                     [ 4.19863520E+00, -2.03640170E-03,  6.52034160E-06,
                      -5.48792690E-09,  1.77196800E-12, -3.02937260E+04,
                      -8.49009010E-01]),
                NASA([1000.00, 6000.00],
                     [ 2.67703890E+00,  2.97318160E-03, -7.73768890E-07,
                       9.44335140E-11, -4.26899910E-15, -2.98858940E+04,
                       6.88255000E+00])),
        transport=gas_transport(geom='nonlinear',
                                diam=2.605,
                                well_depth=572.4,
                                dipole=1.844,
                                rot_relax=4.0),
        note='L5/89')

species(name='CO2',
        atoms='C:1 O:2',
        thermo=(NASA([200.00, 1000.00],
                     [ 2.35681300E+00,  8.98412990E-03, -7.12206320E-06,
                       2.45730080E-09, -1.42885480E-13, -4.83719710E+04,
                       9.90090350E+00]),
                NASA([1000.00, 6000.00],
                     [ 4.63651110E+00,  2.74145690E-03, -9.95897590E-07,
                       1.60386660E-10, -9.16198570E-15, -4.90249040E+04,
                      -1.93489550E+00])),
        transport=gas_transport(geom='linear',
                                diam=3.763,
                                well_depth=244.0,
                                polar=2.65,
                                rot_relax=2.1),
        note='L7/88')

species(name='AR',
        atoms='Ar:1',
        thermo=(NASA([200.00, 1000.00],
                     [ 2.50000000E+00,  0.00000000E+00,  0.00000000E+00,
                       0.00000000E+00,  0.00000000E+00, -7.45375000E+02,
                       4.37967491E+00]),
                NASA([1000.00, 6000.00],
                     [ 2.50000000E+00,  0.00000000E+00,  0.00000000E+00,
                       0.00000000E+00,  0.00000000E+00, -7.45375000E+02,
                       4.37967491E+00])),
        transport=gas_transport(geom='atom',
                                diam=3.33,
                                well_depth=136.5),
        note='REFELEMENTG5/97')

species(name='HO2',
        atoms='H:1 O:2',
        thermo=(NASA([200.00, 1000.00],
                     [ 4.30179807E+00, -4.74912097E-03,  2.11582905E-05,
                      -2.42763914E-08,  9.29225225E-12,  2.64018485E+02,
                       3.71666220E+00]),
                NASA([1000.00, 5000.00],
                     [ 4.17228741E+00,  1.88117627E-03, -3.46277286E-07,
                       1.94657549E-11,  1.76256905E-16,  3.10206839E+01,
                       2.95767672E+00])),
        transport=gas_transport(geom='nonlinear',
                                diam=3.458,
                                well_depth=107.4,
                                rot_relax=1.0),
        note='T1/09')

species(name='H2O2',
        atoms='H:2 O:2',
        thermo=(NASA([200.00, 1000.00],
                     [ 4.31515149E+00, -8.47390622E-04,  1.76404323E-05,
                      -2.26762944E-08,  9.08950158E-12, -1.77067437E+04,
                       3.27373319E+00]),
                NASA([1000.00, 6000.00],
                     [ 4.57977305E+00,  4.05326003E-03, -1.29844730E-06,
                       1.98211400E-10, -1.13968792E-14, -1.80071775E+04,
                       6.64970694E-01])),
        transport=gas_transport(geom='nonlinear',
                                diam=3.458,
                                well_depth=107.4,
                                rot_relax=3.8),
        note='T8/03')

species(name='CO',
        atoms='C:1 O:1',
        thermo=(NASA([200.00, 1000.00],
                     [ 3.57953350E+00, -6.10353690E-04,  1.01681430E-06,
                       9.07005860E-10, -9.04424490E-13, -1.43440860E+04,
                       3.50840930E+00]),
                NASA([1000.00, 6000.00],
                     [ 3.04848590E+00,  1.35172810E-03, -4.85794050E-07,
                       7.88536440E-11, -4.69807460E-15, -1.42661170E+04,
                       6.01709770E+00])),
        transport=gas_transport(geom='linear',
                                diam=3.65,
                                well_depth=98.1,
                                polar=1.95,
                                rot_relax=1.8),
        note='RUS79')

species(name='HCO',
        atoms='H:1 C:1 O:1',
        thermo=(NASA([200.00, 1000.00],
                     [ 4.23754610E+00, -3.32075257E-03,  1.40030264E-05,
                      -1.34239995E-08,  4.37416208E-12,  3.87241185E+03,
                       3.30834869E+00]),
                NASA([1000.00, 6000.00],
                     [ 3.92001542E+00,  2.52279324E-03, -6.71004164E-07,
                       1.05615948E-10, -7.43798261E-15,  3.65342928E+03,
                       3.58077056E+00])),
        transport=gas_transport(geom='nonlinear',
                                diam=3.59,
                                well_depth=498.0),
        note='T5/03')

species(name='S-OH',
        atoms='H:1 O:1',
        thermo=(NASA([200.00, 1000.00],
                     [ 3.46084428E+00,  5.01872172E-04, -2.00254474E-06,
                       3.18901984E-09, -1.35451838E-12,  5.07349466E+04,
                       1.73976415E+00]),
                NASA([1000.00, 6000.00],
                     [ 2.75582920E+00,  1.39848756E-03, -4.19428493E-07,
                       6.33453282E-11, -3.56042218E-15,  5.09751756E+04,
                       5.62581429E+00])),
        transport=gas_transport(geom='linear',
                                diam=2.75,
                                well_depth=80.0),
        note='ATcTA')

species(name='CH',
        atoms='H:1 C:1',
        thermo=(NASA([298.00, 1000.00],
                     [ 3.59786591E+00, -5.44427017E-04,  6.03986457E-07,
                       5.80967707E-10, -4.34005808E-13,  7.06409577E+04,
                       1.62018856E+00]),
                NASA([1000.00, 3000.00],
                     [ 2.74348624E+00,  1.52989360E-03, -5.52389459E-07,
                       8.80014113E-11, -4.60454258E-15,  7.08809970E+04,
                       6.08287339E+00])),
        transport=gas_transport(geom='linear',
                                diam=2.75,
                                well_depth=80.0))

species(name='C',
        atoms='C:1',
        thermo=(NASA([200.00, 1000.00],
                     [ 2.55423950E+00, -3.21537720E-04,  7.33792230E-07,
                      -7.32234870E-10,  2.66521440E-13,  8.54426810E+04,
                       4.53130850E+00]),
                NASA([1000.00, 6000.00],
                     [ 2.60558300E+00, -1.95934340E-04,  1.06737220E-07,
                      -1.64239400E-11,  8.18705800E-16,  8.54117420E+04,
                       4.19238680E+00])),
        transport=gas_transport(geom='atom',
                                diam=3.298,
                                well_depth=71.4),
        note='L7/88')

species(name='S-CH',
        atoms='H:1 C:1',
        thermo=(NASA([200.00, 1000.00],
                     [ 3.47250101E+00,  4.26443626E-04, -1.95181794E-06,
                       3.51755043E-09, -1.60436174E-12,  1.04334869E+05,
                       1.44799533E+00]),
                NASA([1000.00, 6000.00],
                     [ 2.78220752E+00,  1.47246754E-03, -4.63436227E-07,
                       7.32736021E-11, -4.19705404E-15,  1.04547060E+05,
                       5.17421018E+00])),
        transport=gas_transport(geom='linear',
                                diam=2.75,
                                well_depth=80.0),
        note='EG4/09')

species(name='C2H',
        atoms='H:1 C:2',
        thermo=(NASA([298.00, 1000.00],
                     [ 4.54105715E+00,  3.23522334E-03, -4.59654660E-06,
                       4.70503399E-09, -1.72607263E-12,  6.68980338E+04,
                      -6.53337642E-01]),
                NASA([1000.00, 3000.00],
                     [ 4.16753732E+00,  2.88848340E-03, -1.06816897E-06,
                       1.82101263E-10, -1.12577551E-14,  6.70565679E+04,
                       1.58833761E+00])),
        transport=gas_transport(geom='linear',
                                diam=4.1,
                                well_depth=209.0,
                                rot_relax=2.5))

species(name='T-CH2',
        atoms='H:2 C:1',
        thermo=(NASA([298.00, 1000.00],
                     [ 3.40215504E+00,  3.46667360E-03, -3.77573716E-06,
                       3.12335389E-09, -9.43817916E-13,  4.61091515E+04,
                       3.19557878E+00]),
                NASA([1000.00, 3000.00],
                     [ 3.03963103E+00,  3.06098054E-03, -9.34182390E-07,
                       1.07128289E-10, -9.30010209E-16,  4.62928160E+04,
                       5.45440820E+00])),
        transport=gas_transport(geom='linear',
                                diam=3.8,
                                well_depth=144.0))

species(name='CH3',
        atoms='H:3 C:1',
        thermo=(NASA([298.00, 1000.00],
                     [ 3.52930959E+00,  3.93813981E-03,  3.59568786E-07,
                      -1.19085850E-09,  4.30776377E-13,  1.64865209E+04,
                       2.10649376E+00]),
                NASA([1000.00, 3000.00],
                     [ 2.45689312E+00,  6.85662424E-03, -2.73009660E-06,
                       5.22525136E-10, -3.90098356E-14,  1.67951949E+04,
                       7.68715124E+00])),
        transport=gas_transport(geom='linear',
                                diam=3.8,
                                well_depth=144.0))

species(name='CH2O',
        atoms='H:2 C:1 O:1',
        thermo=(NASA([298.00, 1000.00],
                     [ 4.02550517E+00, -4.06770880E-03,  2.17177398E-05,
                      -2.08782820E-08,  6.59719571E-12, -1.43510901E+04,
                       3.76247699E+00]),
                NASA([1000.00, 3000.00],
                     [ 1.21253087E+00,  1.03100703E-02, -5.32426860E-06,
                       1.32521523E-09, -1.29097877E-13, -1.39186182E+04,
                       1.66174479E+01])),
        transport=gas_transport(geom='nonlinear',
                                diam=3.59,
                                well_depth=498.0,
                                rot_relax=2.0))

species(name='HCCO',
        atoms='H:1 C:2 O:1',
        thermo=(NASA([298.00, 1000.00],
                     [ 3.04318442E+00,  1.46102883E-02, -1.94446292E-05,
                       1.44842720E-08, -4.34187202E-12,  1.99516444E+04,
                       8.67756410E+00]),
                NASA([1000.00, 3000.00],
                     [ 5.00393576E+00,  5.37847238E-03, -2.57702189E-06,
                       6.01265265E-10, -5.54080163E-14,  1.95977241E+04,
                      -5.12761106E-01])),
        transport=gas_transport(geom='nonlinear',
                                diam=2.5,
                                well_depth=150.0,
                                rot_relax=1.0))

species(name='CH2CO',
        atoms='H:2 C:2 O:1',
        thermo=(NASA([298.00, 1000.00],
                     [ 1.84575741E+00,  2.00191634E-02, -2.24248148E-05,
                       1.47947272E-08, -4.09905914E-12, -7.15187655E+03,
                       1.34255266E+01]),
                NASA([1000.00, 3000.00],
                     [ 4.24408656E+00,  9.50856221E-03, -4.60045649E-06,
                       1.08459628E-09, -1.01014433E-13, -7.60843408E+03,
                       2.02741024E+00])),
        transport=gas_transport(geom='nonlinear',
                                diam=3.97,
                                well_depth=436.0,
                                rot_relax=2.0))

species(name='C2H2',
        atoms='H:2 C:2',
        thermo=(NASA([298.00, 1000.00],
                     [ 6.11881334E-01,  2.35511205E-02, -3.51876788E-05,
                       2.71287984E-08, -8.05709816E-12,  2.65590923E+04,
                       1.48793590E+01]),
                NASA([1000.00, 3000.00],
                     [ 4.20453369E+00,  5.72745973E-03, -2.29545656E-06,
                       4.44130884E-10, -3.36445221E-14,  2.59806724E+04,
                      -1.67122889E+00])),
        transport=gas_transport(geom='linear',
                                diam=4.1,
                                well_depth=209.0,
                                rot_relax=2.5))

species(name='S-CH2',
        atoms='H:2 C:1',
        thermo=(NASA([298.00, 1000.00],
                     [ 4.09382097E+00, -1.57355496E-03,  6.14481761E-06,
                      -4.54290901E-09,  1.16592128E-12,  5.04222053E+04,
                      -3.46255517E-01]),
                NASA([1000.00, 3000.00],
                     [ 2.28071747E+00,  4.60602412E-03, -1.97447412E-06,
                       4.09217875E-10, -3.33894485E-14,  5.08537803E+04,
                       8.70740526E+00])),
        transport=gas_transport(geom='linear',
                                diam=3.8,
                                well_depth=144.0))

species(name='CH4',
        atoms='H:4 C:1',
        thermo=(NASA([298.00, 1000.00],
                     [ 4.16716351E+00, -6.31932813E-03,  2.98516596E-05,
                      -2.80272841E-08,  8.87170742E-12, -1.00626350E+04,
                      -5.80421443E-01]),
                NASA([1000.00, 3000.00],
                     [-2.12057774E-01,  1.39686455E-02, -6.59704471E-06,
                       1.52400370E-09, -1.39628424E-13, -9.26338717E+03,
                       2.00089507E+01])),
        transport=gas_transport(geom='nonlinear',
                                diam=3.746,
                                well_depth=141.4,
                                polar=2.6,
                                rot_relax=13.0))

species(name='CH3O',
        atoms='H:3 C:1 O:1',
        thermo=(NASA([298.00, 1000.00],
                     [ 2.05790201E+00,  9.53454644E-03,  2.56323913E-06,
                      -7.59370108E-09,  3.02439392E-12,  1.41480580E+03,
                       1.27986825E+01]),
                NASA([1000.00, 3000.00],
                     [ 1.84600348E+00,  1.27916998E-02, -6.49261849E-06,
                       1.59518222E-09, -1.53886597E-13,  1.35518213E+03,
                       1.32648102E+01])),
        transport=gas_transport(geom='nonlinear',
                                diam=3.69,
                                well_depth=417.0,
                                dipole=1.7,
                                rot_relax=2.0))

species(name='CH3O2',
        atoms='H:3 C:1 O:2',
        thermo=(NASA([298.00, 1000.00],
                     [ 2.98319406E+00,  8.41462643E-03,  1.08731853E-05,
                      -1.71342331E-08,  6.44935730E-12,  3.15932734E+02,
                       1.26008790E+01]),
                NASA([1000.00, 3000.00],
                     [ 2.64738112E+00,  1.48477436E-02, -7.61804675E-06,
                       1.89383796E-09, -1.84785879E-13,  1.68741990E+02,
                       1.30489369E+01])),
        transport=gas_transport(geom='nonlinear',
                                diam=3.626,
                                well_depth=481.8,
                                rot_relax=1.0))

species(name='C2H3',
        atoms='H:3 C:2',
        thermo=(NASA([298.00, 1000.00],
                     [ 1.24592766E+00,  1.68943133E-02, -1.37100903E-05,
                       6.43932293E-09, -1.27588205E-12,  3.48317928E+04,
                       1.65209024E+01]),
                NASA([1000.00, 3000.00],
                     [ 2.78908545E+00,  1.09134748E-02, -5.21420437E-06,
                       1.21793184E-09, -1.12696119E-13,  3.45198029E+04,
                       9.04370883E+00])),
        transport=gas_transport(geom='nonlinear',
                                diam=4.1,
                                well_depth=209.0,
                                rot_relax=1.0))

species(name='C2H4',
        atoms='H:4 C:2',
        thermo=(NASA([298.00, 1000.00],
                     [ 1.26077718E+00,  1.25535099E-02,  3.91765744E-06,
                      -1.11347591E-08,  4.58058379E-12,  5.33704654E+03,
                       1.53160033E+01]),
                NASA([1000.00, 3000.00],
                     [ 1.21215839E+00,  1.61560224E-02, -7.89891848E-06,
                       1.88672649E-09, -1.78219665E-13,  5.21965698E+03,
                       1.48068311E+01])),
        transport=gas_transport(geom='nonlinear',
                                diam=3.971,
                                well_depth=280.8,
                                rot_relax=1.5))

species(name='C2H5',
        atoms='H:5 C:2',
        thermo=(NASA([298.00, 1000.00],
                     [ 2.01543665E+00,  1.36856127E-02,  3.09981682E-06,
                      -9.89324355E-09,  3.98938932E-12,  1.33584121E+04,
                       1.41655049E+01]),
                NASA([1000.00, 3000.00],
                     [ 1.39424662E+00,  1.85742180E-02, -9.00112446E-06,
                       2.12877239E-09, -1.99100582E-13,  1.34011406E+04,
                       1.66581828E+01])),
        transport=gas_transport(geom='nonlinear',
                                diam=4.302,
                                well_depth=252.3,
                                rot_relax=1.5))

species(name='CH2OH',
        atoms='H:3 C:1 O:1',
        thermo=(NASA([298.00, 1000.00],
                     [ 2.82495458E+00,  1.12705233E-02, -4.57074212E-06,
                      -1.60781616E-09,  1.44390945E-12, -3.10796166E+03,
                       1.00763394E+01]),
                NASA([1000.00, 3000.00],
                     [ 4.00727361E+00,  8.29366647E-03, -3.67893214E-06,
                       8.10551112E-10, -7.17299662E-14, -3.40058619E+03,
                       4.01290816E+00])),
        transport=gas_transport(geom='nonlinear',
                                diam=3.69,
                                well_depth=417.0,
                                dipole=1.7,
                                rot_relax=2.0))

species(name='CH3OH',
        atoms='H:4 C:1 O:1',
        thermo=(NASA([298.00, 1000.00],
                     [ 3.66108629E+00,  3.78050479E-04,  2.45757569E-05,
                      -2.72736479E-08,  9.35484626E-12, -2.55776356E+04,
                       6.96921095E+00]),
                NASA([1000.00, 3000.00],
                     [ 1.20506556E+00,  1.52693588E-02, -7.35564052E-06,
                       1.74086533E-09, -1.63557134E-13, -2.52734175E+04,
                       1.77172879E+01])),
        transport=gas_transport(geom='nonlinear',
                                diam=3.626,
                                well_depth=481.8,
                                rot_relax=1.0))

species(name='H2C2',
        atoms='H:2 C:2',
        thermo=(NASA([298.00, 1000.00],
                     [ 3.30534025E+00,  8.32543737E-03, -6.57629984E-06,
                       3.68042609E-09, -9.66177637E-13,  4.82768018E+04,
                       5.69891045E+00]),
                NASA([1000.00, 3000.00],
                     [ 3.55940431E+00,  6.63046498E-03, -3.04314025E-06,
                       6.82789283E-10, -6.07920850E-14,  4.82608362E+04,
                       4.64515655E+00])),
        transport=gas_transport(geom='nonlinear',
                                diam=4.1,
                                well_depth=209.0,
                                rot_relax=2.5))

species(name='CH2CHO',
        atoms='H:3 C:2 O:1',
        thermo=(NASA([298.00, 1000.00],
                     [ 9.86311004E-01,  2.24920216E-02, -1.64812936E-05,
                       5.86617239E-09, -6.81551147E-13,  1.07163704E+03,
                       1.95196726E+01]),
                NASA([1000.00, 3000.00],
                     [ 3.63026330E+00,  1.41239404E-02, -7.16478146E-06,
                       1.76263004E-09, -1.70391996E-13,  4.29875072E+02,
                       6.20577997E+00])),
        transport=gas_transport(geom='nonlinear',
                                diam=3.97,
                                well_depth=436.0,
                                rot_relax=2.0))

species(name='CH3CHO',
        atoms='H:4 C:2 O:1',
        thermo=(NASA([298.00, 1000.00],
                     [ 2.93890043E+00,  9.57900047E-03,  1.29601852E-05,
                      -1.88434352E-08,  6.75416947E-12, -2.13254369E+04,
                       1.17108482E+01]),
                NASA([1000.00, 3000.00],
                     [ 1.67215938E+00,  1.94264694E-02, -9.92486315E-06,
                       2.45289244E-09, -2.37837800E-13, -2.12797614E+04,
                       1.67054665E+01])),
        transport=gas_transport(geom='nonlinear',
                                diam=3.97,
                                well_depth=436.0,
                                rot_relax=2.0))

species(name='N-C3H7',
        atoms='H:7 C:3',
        thermo=(NASA([298.00, 1000.00],
                     [ 8.45465693E-01,  3.01374053E-02, -1.26376899E-05,
                      -1.23408463E-09,  1.93083372E-12,  1.07500034E+04,
                       2.16839066E+01]),
                NASA([1000.00, 3000.00],
                     [ 2.27672113E+00,  2.72426458E-02, -1.33728149E-05,
                       3.19705815E-09, -3.01679976E-13,  1.03498864E+04,
                       1.41405472E+01])),
        transport=gas_transport(geom='nonlinear',
                                diam=4.982,
                                well_depth=266.8,
                                rot_relax=1.0))

species(name='C2H6',
        atoms='H:6 C:2',
        thermo=(NASA([298.00, 1000.00],
                     [ 2.06504612E+00,  1.17762358E-02,  1.32773626E-05,