"""

Mevel, R. and Chatelain, K. and Boettcher, P. A. and Shepherd, J. E.,
Low temperature oxidation of n-hexane in a flow reactor. Fuel, 125, 282-293, 2014.

449 species
2860 reactions

Note:  This version does not contain constants for transport data as it was used
for a one-dimensional plug model of a flow reactor.

 June 5, 2018


"""

units(length='cm', time='s', quantity='mol', act_energy='cal/mol')

ideal_gas(name='gas',
          elements="H C O N Ar",
          species="""OH*           CH*           CO2*          AR
                     NC6H14        O2            H2            CH4
                     C2H6          C3H8          C2H4          CO
                     CO2           H             O             OH
                     HO2           H2O           H2O2          C2H2
                     C3H6          C4H8-1        C4H6          C5H10-1
                     C4H722        NC4H9CO       CH2CHCHCO     CjHCHCHCO
                     CH2O          CH3CHO        C2H5CHO       NC3H7CHO
                     C2H3CHO       CH3OH         NC4H10        C3H4-a
                     C3H4-p        C5H813        C5H814        C2H5OH
                     C2C5H10       t2C5H10       CH3COCH3      CH2CO
                     C2H4O1,2      C4H4          NC5H12        iC4H8
                     Cpd           iC3H7CHO      isOpe         iC3H5CHO
                     but2m2d       but2m1d       C6H6          t2C4H8
                     C2C4H8        iC4H10        butyNe        butyN2
                     CH3OCHO       NC4H9CHO      C5H11CHO      C6H12-1
                     C6H12-2       C6H12-3       HexCy5O2      HexCy4O1
                     HexCy4O2      HexCy3O1      N2            HCO
                     CH3           CH3O          CH3O2         C2H3
                     C2H5          CH3CO         pC4H9         CHOCHO
                     NC3H7CO       CH2OCHO       CH3OCO        C3ket12
                     C3ket13       C3ket21       C2H3COCH3     sC3H5CHO
                     aC3H5CHO      but1OOH2*O    but3OOH2*O    but4OOH2*O
                     but2OOH1*O    but3OOH1*O    but4OOH1*O    C4H8Cy1O3
                     C4H8Cy1O4     C4H8Cy1O2     C4H8Cy2O3     CyC5H8
                     CH3COCHO      CHOC2H4CHO    C4ald3OxO     C4ald2OxO
                     NC3H7COCH3    etCOC2H3      OC4H6         C2H5COCH3
                     C2H5COCO      C4H5CO        CHOC2H4CO     C4H8CHO-5
                     C4H8CHO-4     C4H8CHO-3     C4H8CHO-2     C5H10CHO-6
                     C5H10CHO-5    C5H10CHO-4    C5H10CHO-3    C5H10CHO-2
                     C5H11CO       C5H11-1       C5H11-2       C5H11-3
                     peNt3O2       peNt1O2H2j    peNt1O2H4j    peNt3O2H1j
                     peNt2O2H1j    peNt2O2H3j    peNt2O2H5j    peNt3O2H2j
                     C5H913        C5H924        C5H914        peNt1O2H
                     peNt2O2H      peNt3O2H      peNt1O2       peNt2O2
                     peNt1O2H3j    peNt2O2H4j    peNtCy4O1     peNtCy4O2
                     peNtCy3O1     peNt1O        peNt2O        peNt3O
                     C5H9CO        C5ald4OxO     C5ald3OxO     C5ald2OxO
                     aCetOCH2O2    aCetOCH2O     C2H5COCH2O    C6H13-1
                     C6H13-2       C6H13-3       Hex3O2        Hex4O2H2j
                     Hex4O2H2O2    Hex1O         Hex2O         Hex3O
                     Hex1O2H4j     Hex2O2H5j     Hex1O2H4O2    Hex2O2H5O2
                     Hex1O2        Hex2O2        Hex1O2H3j     Hex2O2H4j
                     Hex1O2H3O2    Hex2O2H4O2    prCOCH3-3     etCOetO2
                     etCOetO       prCOCH2O2     prCOCH2O      prCOet-1O2
                     prCOet-1O     C6H1126       C6H1125       NprCOetpO
                     NprCOetpO2    C6H1116       C6H1115       C6H1114
                     C6H1113       Hex1O2H2j     Hex2O2H3j     Hex3O2H2j
                     Hex3O2H4j     Hex1O2H2O2    Hex2O2H3O2    Hex3O2H2O2
                     Hex3O2H4O2    Hex4O2H1j     Hex4O2H1O2    Hex2O2H1j
                     Hex2O2H1O2    Hex2O2H1*O    Hex3O2H1*O    C6H1124
                     Hex4O2H1*O    Hex5O2H1*O    Hex1O2H2*O    Hex3O2H2*O
                     Hex4O2H2*O    Hex5O2H2*O    Hex2O2H3*O    Hex4O2H3*O
                     Hex1O2H4*O    Hex2O2H4*O    Hex1O2H       Hex2O2H
                     Hex3O2H       C6H1131       C6H1013       Hex1O2H5j
                     Hex1O2H5O2    Hex3O2H1j     Hex3O2H1O2    Hex1O2H3*O
                     C6H12CO       C6ald4OxO     C6ald3OxO     etCOetCO
                     prCOmeCO      C4H9COCHO     C4H9COCO      prCOCH3-1O
                     NC4H9COCH2    iC4H9         iC4H7         tC4H9
                     iC3H7CO       HO2iC4H7iO    tC3H6CHO      iC3H5CO
                     isOpy         but3m1dt      tC4H8iO2H     HO2tC4H7iO
                     iC4H8O        iC4H8OH       iC4H7O        iC4H6OH
                     iC4H7OH       iC4H9O2H      iC4H9O        iC4H8tO2H
                     C6H5          MC6H6         C6H7C         HEX1245
                     FULVENE       C6H5O         C5H5          C6H615
                     C6H5OH        CyC5H9        CyC5H7        lC5H5
                     C2O           but2m1d3      tC5H11        C4H91O2
                     C4H81OOH2j    C4H81OOH3j    C4H81OOH4j    but1OOH2O2
                     but1OOH3O2    but1OOH4O2    C4H91O2H      pC4H9O
                     C4H92O2       C4H82OOH1j    C4H82OOH3j    C4H82OOH4j
                     but2OOH1O2    but2OOH3O2    but2OOH4O2    C4H92O2H
                     sC4H9O        aCetOO2       aCetOO        C3H6CHO-4O
                     C5H7          NC3H7         CH            C2H
                     CH3COCH2      CH2OH         HCCO          C4H711
                     pC2H4OH       CH2CHO        iC3H7         C2H5CO
                     C2H5O2        CH3O2H        C2H5O2H       C2H3O1,2
                     CH3CO2        C2H4O2H       CH3CO3        CH3CO3H
                     C2H3CO        CHOCO         C3H5O         prOOH1-2
                     prOOH1-3      prOOH2-1      prOOH1-2O2    prOOH1-3O2
                     prOOH2-1O2    NC3H7O        iC3H7O        NC3H7O2H
                     iC3H7O2H      NC3H7O2       iC3H7O2       C3H6O1-3
                     sC4H9         C3H5-a        C3H5-s        C3H5-t
                     HOC4H6        C3H3          C3H2          C3H6O1-2
                     C4H712        C4H5O         OCHO          CH2(s)
                     C4H6O2H       C3H62OH       C3H5OH        CH2CCH2OH
                     aCetOCH2      C2H5COCH2     C3H61OH       C3H61OH2OO
                     C3H62OH1OO    pC4H8OH-2     C4j3OOH2*O    C43OO2*O
                     CH3CHCOCH3    CH3CHCO       C3H6CHO-2     C3H6CHO-3
                     sC4H8OH-1     C2H5CHCO      CH3CHOCHO     CH3CHCHO
                     sC3H5CO       iC3H6CHO      C3H6CHO-4     sC4H8OH-3
                     iC4H5         NC4H5         aC3H5CO       C2H3CHCHO
                     iC4H3         NC4H3         C4H2          C4H
                     H2C4O         CH3CHOH       H2CCCCH2      CH3CCCH2
                     C4H713        CH3CHCCH      C4H612        C3H3O
                     C4H714        C3H4OH        C3H4O         C3H4O2H
                     C2H2OH        HCCOH         CH3CH2O       CH3COCO
                     meCOmeCO      C2            C4H6O25       C4H6O23
                     iC3H6CO       CH2           C             NC3H7COCH2
                     etCOetp       prCOCH3-2     prCOet-1      NprCOetp
                     prCOCH3-1     sC4H9OH       etCOet        etCOets
                     C4H4O         petCOC2H3     setCOC2H3     pC2H4CHO
                     C5H915        NprCOet       prCOet-2      prCOet-3
                     NprCOets      C4H73O2       C4H71O2       C4H63OOH4j
                     C4H61OOH4j    C3H6CHO-2O    C3H6CHO-4O2   C3H6CHO-3O
                     C3H6CHO-3O2   C3H6CHO-2O2   C4H63OOH4O2   C4H61OOH4O2
                     C4H54O2H3*O   C4H54O2H1*O   O2tC4H8iO2H   O2iC4H8iO2H
                     peNt1O2H2O2   peNt1O2H3O2   C2H5COCH2O2   peNt1O2H4O2
                     peNt2O2H1O2   peNt2O2H3O2   peNt2O2H4O2   peNt2O2H5O2
                     peNt3O2H1O2   peNt3O2H2O2   peNt2O2H1*O   peNt3O2H1*O
                     peNt4O2H1*O   peNt1O2H2*O   peNt3O2H2*O   peNt4O2H2*O
                     peNt5O2H2*O   peNt1O2H3*O   peNt2O2H3*O   prCOCH3-1O2
                     pC4H8OH-2OO   NC4H9COCH2O   NC4H9COCH2O2  sC4H8OH-1OO
                     sC4H8OH-3OO""",
          reactions='all',
          initial_state=state(temperature=300.0, pressure=OneAtm))

#-------------------------------------------------------------------------------
# Species data
#-------------------------------------------------------------------------------

species(name='OH*',
        atoms='O:1 H:1',
        thermo=(NASA([300.00, 1200.00],
                     [ 3.64731694E+00,  1.25257954E-04, -1.57633414E-06,
                       2.35110477E-09, -8.59505189E-13,  5.00201598E+04,
                       1.31534766E+00]),
                NASA([1200.00, 5000.00],
                     [ 2.88272162E+00,  1.01398847E-03, -2.27695660E-07,
                       2.17486548E-11, -5.12777544E-16,  5.03010210E+04,
                       5.59529841E+00])),
        note='SDT18')

species(name='CH*',
        atoms='H:1 C:1',
        thermo=(NASA([300.00, 1200.00],
                     [ 3.26787506E+00,  1.59455142E-03, -4.00091436E-06,
                       4.65503017E-09, -1.60491694E-12,  1.03930175E+05,
                       3.04708316E+00]),
                NASA([1200.00, 5000.00],
                     [ 2.19619188E+00,  2.34043357E-03, -7.05849639E-07,
                       9.00825919E-11, -3.85558568E-15,  1.04350881E+05,
                       9.17731364E+00])),
        note='SDT18')

species(name='CO2*',
        atoms='O:2 C:1',
        thermo=(NASA([200.00, 1000.00],
                     [ 2.64173280E+00,  6.75305590E-03, -1.48535050E-06,
                      -3.09210350E-09,  1.68979310E-12, -6.04758330E+02,
                       8.58279490E+00]),
                NASA([1000.00, 6000.00],
                     [ 4.47000650E+00,  2.96855000E-03, -1.10147490E-06,
                       1.80568220E-10, -1.05220520E-14, -1.14684250E+03,
                      -1.11971600E+00])))

species(name='AR',
        atoms='Ar:1',
        thermo=(NASA([300.00, 1000.00],
                     [ 2.50000000E+00,  0.00000000E+00,  0.00000000E+00,
                       0.00000000E+00,  0.00000000E+00, -7.45400000E+02,
                       4.36600000E+00]),
                NASA([1000.00, 5000.00],
                     [ 2.50000000E+00,  0.00000000E+00,  0.00000000E+00,
                       0.00000000E+00,  0.00000000E+00, -7.45400000E+02,
                       4.36600000E+00])))

species(name='NC6H14',
        atoms='H:14 C:6',
        thermo=(NASA([300.00, 1200.00],
                     [ 1.90038413E+00,  5.14640294E-02,  7.91906421E-06,
                      -3.47484905E-08,  1.31381393E-11, -2.29428369E+04,
                       2.05073363E+01]),
                NASA([1200.00, 5000.00],
                     [ 2.28046470E+01,  2.09800119E-02, -3.53074129E-06,
                      -5.46609072E-10,  1.47893745E-13, -3.07498496E+04,
                      -9.58469533E+01])),
        note='SDT18')

species(name='O2',
        atoms='O:2',
        thermo=(NASA([200.00, 1000.00],
                     [ 3.78245636E+00, -2.99673416E-03,  9.84730201E-06,
                      -9.68129509E-09,  3.24372837E-12, -1.06394356E+03,
                       3.65767573E+00]),
                NASA([1000.00, 6000.00],
                     [ 3.66096065E+00,  6.56365811E-04, -1.41149627E-07,
                       2.05797935E-11, -1.29913436E-15, -1.21597718E+03,
                       3.41536279E+00])))

species(name='H2',
        atoms='H:2',
        thermo=(NASA([300.00, 1000.00],
                     [ 3.29812000E+00,  8.24940000E-04, -8.14300000E-07,
                      -9.47500000E-11,  4.13490000E-13, -1.01250000E+03,
                      -3.29400000E+00]),
                NASA([1000.00, 5000.00],
                     [ 2.99142000E+00,  7.00060000E-04, -5.63400000E-08,
                      -9.23000000E-12,  1.58000000E-15, -8.35000000E+02,
                      -1.35500000E+00])))

species(name='CH4',
        atoms='H:4 C:1',
        thermo=(NASA([300.00, 1200.00],
                     [ 2.62045814E+00,  3.76147235E-03,  7.27939329E-06,
                      -6.59009253E-09,  1.56167384E-12, -1.00081602E+04,
                       6.05753345E+00]),
                NASA([1200.00, 5000.00],
                     [ 1.68327896E+00,  1.02375796E-02, -3.87532085E-06,
                       6.78603752E-10, -4.50335256E-14, -1.00897189E+04,
                       9.60841931E+00])),
        note='SDT18')

species(name='C2H6',
        atoms='H:6 C:2',
        thermo=(NASA([300.00, 1200.00],
                     [ 1.59004225E+00,  1.47238456E-02,  7.10969437E-06,
                      -1.31224038E-08,  4.40700730E-12, -1.12535376E+04,
                       1.38814487E+01]),
                NASA([1200.00, 5000.00],
                     [ 4.82572271E+00,  1.38407971E-02, -4.55746628E-06,
                       6.72547289E-10, -3.59838106E-14, -1.27204606E+04,
                      -5.24240574E+00])),
        note='SDT18')

species(name='C3H8',
        atoms='H:8 C:3',
        thermo=(NASA([300.00, 1200.00],
                     [ 4.63328044E-01,  3.02707210E-02, -4.98107073E-06,
                      -8.61581294E-09,  3.81150487E-12, -1.39150305E+04,
                       2.11201251E+01]),
                NASA([1200.00, 5000.00],
                     [ 7.53383893E+00,  1.88727422E-02, -6.27213187E-06,
                       9.14821315E-10, -4.78432927E-14, -1.64694698E+04,
                      -1.78921611E+01])),
        note='SDT18')

species(name='C2H4',
        atoms='H:4 C:2',
        thermo=(NASA([200.00, 1000.00],
                     [ 3.95920063E+00, -7.57051373E-03,  5.70989993E-05,
                      -6.91588352E-08,  2.69884190E-11,  5.08977598E+03,
                       4.09730213E+00]),
                NASA([1000.00, 6000.00],
                     [ 3.99182724E+00,  1.04833908E-02, -3.71721342E-06,
                       5.94628366E-10, -3.53630386E-14,  4.26865851E+03,
                      -2.69081762E-01])))

species(name='CO',
        atoms='O:1 C:1',
        thermo=(NASA([200.00, 1000.00],
                     [ 3.57953350E+00, -6.10353690E-04,  1.01681430E-06,
                       9.07005860E-10, -9.04424490E-13, -1.43440860E+04,
                       3.50840930E+00]),
                NASA([1000.00, 6000.00],
                     [ 3.04848590E+00,  1.35172810E-03, -4.85794050E-07,
                       7.88536440E-11, -4.69807460E-15, -1.42661170E+04,
                       6.01709770E+00])))

species(name='CO2',
        atoms='O:2 C:1',
        thermo=(NASA([200.00, 1000.00],
                     [ 2.35681300E+00,  8.98412990E-03, -7.12206320E-06,
                       2.45730080E-09, -1.42885480E-13, -4.83719710E+04,
                       9.90090350E+00]),
                NASA([1000.00, 6000.00],
                     [ 4.63651110E+00,  2.74145690E-03, -9.95897590E-07,
                       1.60386660E-10, -9.16198570E-15, -4.90249040E+04,
                      -1.93489550E+00])))

species(name='H',
        atoms='H:1',
        thermo=(NASA([300.00, 1000.00],
                     [ 2.50000000E+00,  0.00000000E+00,  0.00000000E+00,
                       0.00000000E+00,  0.00000000E+00,  2.54716000E+04,
                      -4.60000000E-01]),
                NASA([1000.00, 5000.00],
                     [ 2.50000000E+00,  0.00000000E+00,  0.00000000E+00,
                       0.00000000E+00,  0.00000000E+00,  2.54716000E+04,
                      -4.60000000E-01])))

species(name='O',
        atoms='O:1',
        thermo=(NASA([300.00, 1000.00],
                     [ 2.94643000E+00, -1.63817000E-03,  2.42103000E-06,
                      -1.60284000E-09,  3.89070000E-13,  2.91476000E+04,
                       2.96400000E+00]),
                NASA([1000.00, 5000.00],
                     [ 2.54206000E+00, -2.75500000E-05, -3.10000000E-09,
                       4.55000000E-12, -4.40000000E-16,  2.92308000E+04,
                       4.92000000E+00])))

species(name='OH',
        atoms='O:1 H:1',
        thermo=(NASA([200.00, 1000.00],
                     [ 3.99198424E+00, -2.40106655E-03,  4.61664033E-06,
                      -3.87916306E-09,  1.36319502E-12,  3.36889836E+03,
                      -1.03998477E-01]),
                NASA([1000.00, 6000.00],
                     [ 2.83853033E+00,  1.10741289E-03, -2.94000209E-07,
                       4.20698729E-11, -2.42289890E-15,  3.69780808E+03,
                       5.84494652E+00])))

species(name='HO2',
        atoms='O:2 H:1',
        thermo=(NASA([200.00, 1000.00],
                     [ 4.30179807E+00, -4.74912097E-03,  2.11582905E-05,
                      -2.42763914E-08,  9.29225225E-12,  2.64018485E+02,
                       3.71666220E+00]),
                NASA([1000.00, 5000.00],
                     [ 4.17228741E+00,  1.88117627E-03, -3.46277286E-07,
                       1.94657549E-11,  1.76256905E-16,  3.10206839E+01,
                       2.95767672E+00])))

species(name='H2O',
        atoms='O:1 H:2',
        thermo=(NASA([200.00, 1000.00],
                     [ 4.19863520E+00, -2.03640170E-03,  6.52034160E-06,
                      -5.48792690E-09,  1.77196800E-12, -3.02937260E+04,
                      -8.49009010E-01]),
                NASA([1000.00, 6000.00],
                     [ 2.67703890E+00,  2.97318160E-03, -7.73768890E-07,
                       9.44335140E-11, -4.26899910E-15, -2.98858940E+04,
                       6.88255000E+00])))

species(name='H2O2',
        atoms='O:2 H:2',
        thermo=(NASA([200.00, 1000.00],
                     [ 4.31515149E+00, -8.47390622E-04,  1.76404323E-05,
                      -2.26762944E-08,  9.08950158E-12, -1.77067437E+04,
                       3.27373319E+00]),
                NASA([1000.00, 6000.00],
                     [ 4.57977305E+00,  4.05326003E-03, -1.29844730E-06,
                       1.98211400E-10, -1.13968792E-14, -1.80071775E+04,
                       6.64970694E-01])))

species(name='C2H2',
        atoms='H:2 C:2',
        thermo=(NASA([300.00, 1000.00],
                     [ 2.01356000E+00,  1.51904500E-02, -1.61631900E-05,
                       9.07899000E-09, -1.91275000E-12,  2.61244000E+04,
                       8.80500000E+00]),
                NASA([1000.00, 5000.00],
                     [ 4.43677000E+00,  5.37604000E-03, -1.91282000E-06,
                       3.28640000E-10, -2.15700000E-14,  2.56677000E+04,
                      -2.80000000E+00])))

species(name='C3H6',
        atoms='H:6 C:3',
        thermo=(NASA([298.00, 1000.00],
                     [ 1.28764269E+00,  2.25006139E-02, -4.53932009E-07,
                      -1.09681215E-08,  4.87404921E-12,  9.61516107E+02,
                       1.81216778E+01]),
                NASA([1000.00, 3000.00],
                     [ 1.64278374E+00,  2.54878392E-02, -1.26572609E-05,
                       3.05815725E-09, -2.91267032E-13,  7.07032253E+02,
                       1.53987922E+01])))

species(name='C4H8-1',
        atoms='H:8 C:4',
        thermo=(NASA([298.00, 1000.00],
                     [ 6.15204393E-01,  3.72026724E-02, -1.33449440E-05,
                      -4.57144752E-09,  3.51271156E-12, -1.71741052E+03,
                       2.29019794E+01]),
                NASA([1000.00, 3000.00],
                     [ 2.68803264E+00,  3.39128117E-02, -1.68838433E-05,
                       4.08697395E-09, -3.89778146E-13, -2.34978274E+03,
                       1.17321815E+01])))

species(name='C4H6',
        atoms='H:6 C:4',
        thermo=(NASA([300.00, 1200.00],
                     [ 9.38917904E+00,  6.80593068E-03,  1.89432343E-05,
                      -2.10353333E-08,  6.39974894E-12,  9.85471633E+03,
                      -2.28107896E+01]),
                NASA([1200.00, 3000.00],
                     [ 9.84308625E+00,  1.54468179E-02, -5.71845780E-06,
                       1.01492747E-09, -6.87048573E-14,  9.08198499E+03,
                      -2.79893766E+01])),
        note='SDT18')

species(name='C5H10-1',
        atoms='H:10 C:5',
        thermo=(NASA([300.00, 1590.00],
                     [-9.42526750E-01,  5.66699910E-02, -3.59625571E-05,
                       1.16092880E-08, -1.51511633E-12, -4.47877572E+03,
                       3.17594418E+01]),
                NASA([1590.00, 5000.00],
                     [ 1.45844785E+01,  2.24082212E-02, -7.63397099E-06,
                       1.18199352E-09, -6.84463879E-14, -1.00946891E+04,
                      -5.23703095E+01])),
        note='SDT18')

species(name='C4H722',
        atoms='H:7 C:4',
        thermo=(NASA([300.00, 1000.00],
                     [ 1.86889630E+00,  2.85152240E-02,  9.71310230E-07,
                      -1.83366550E-08,  8.46758580E-12,  2.70134710E+04,
                       1.82307590E+01]),
                NASA([1000.00, 5000.00],
                     [ 8.29623160E+00,  1.77462800E-02, -5.28587080E-06,
                       7.75196990E-10, -4.54765430E-14,  2.49809840E+04,
                      -1.65125180E+01])))

species(name='NC4H9CO',
        atoms='O:1 H:9 C:5',
        thermo=(NASA([300.00, 1580.00],
                     [ 2.55271929E+00,  4.86275710E-02, -2.75133874E-05,
                       7.29840753E-09, -6.82634886E-13, -1.14805738E+04,
                       1.87652896E+01]),
                NASA([1580.00, 5000.00],
                     [ 1.61776721E+01,  2.08000920E-02, -7.11833346E-06,
                       1.10569613E-09, -6.41770370E-14, -1.66582331E+04,
                      -5.58961954E+01])),
        note='SDT18')

species(name='CH2CHCHCO',
        atoms='O:1 H:4 C:4',
        thermo=(NASA([300.00, 1600.00],
                     [ 8.24155349E-02,  4.83619908E-02, -4.75702413E-05,
                       2.31979361E-08, -4.38431977E-12, -8.81651262E+02,
                       2.32447635E+01]),
                NASA([1600.00, 5000.00],
                     [ 1.32915980E+01,  9.42825544E-03, -3.23350785E-06,
                       5.02898118E-10, -2.92123348E-14, -4.66535405E+03,
                      -4.48155584E+01])),
        note='SDT18')

species(name='CjHCHCHCO',
        atoms='O:1 H:3 C:4',
        thermo=(NASA([300.00, 1600.00],
                     [ 9.36694576E-01,  4.55055046E-02, -4.80873408E-05,
                       2.44150642E-08, -4.72207084E-12,  2.87362617E+04,
                       1.99415324E+01]),
                NASA([1600.00, 5000.00],
                     [ 1.34484720E+01,  6.80740030E-03, -2.34286276E-06,
                       3.65274928E-10, -2.12556540E-14,  2.53393813E+04,
                      -4.38691469E+01])),
        note='SDT18')

species(name='CH2O',
        atoms='O:1 H:2 C:1',
        thermo=(NASA([200.00, 1000.00],
                     [ 4.79372312E+00, -9.90833322E-03,  3.73219990E-05,
                      -3.79285237E-08,  1.31772641E-11, -1.43227879E+04,
                       6.02798058E-01]),
                NASA([1000.00, 6000.00],
                     [ 3.16952665E+00,  6.19320560E-03, -2.25056366E-06,
                       3.65975660E-10, -2.20149458E-14, -1.44922756E+04,
                       6.04207898E+00])))

species(name='CH3CHO',
        atoms='O:1 H:4 C:2',
        thermo=(NASA([200.00, 1000.00],
                     [ 4.72945950E+00, -3.19328580E-03,  4.75349210E-05,
                      -5.74586110E-08,  2.19311120E-11, -2.15728780E+04,
                       4.10301590E+00]),
                NASA([1000.00, 6000.00],
                     [ 5.40411080E+00,  1.17230590E-02, -4.22631370E-06,
                       6.83724510E-10, -4.09848630E-14, -2.25931220E+04,
                      -3.48079170E+00])))

species(name='C2H5CHO',
        atoms='O:1 H:6 C:3',
        thermo=(NASA([200.00, 1000.00],
                     [ 4.24529681E+00,  6.68296706E-03,  4.93337933E-05,
                      -6.71986124E-08,  2.67262347E-11, -2.41473007E+04,
                       6.90738560E+00]),
                NASA([1000.00, 6000.00],
                     [ 7.44085690E+00,  1.77301764E-02, -6.34081568E-06,
                       1.02040803E-09, -6.09461714E-14, -2.60055814E+04,
                      -1.44195446E+01])))

species(name='NC3H7CHO',
        atoms='O:1 H:8 C:4',
        thermo=(NASA([300.00, 1570.00],
                     [ 1.96731131E+00,  4.13353930E-02, -2.23394701E-05,
                       5.36569501E-09, -3.80481362E-13, -2.71135368E+04,
                       1.87569058E+01]),
                NASA([1570.00, 5000.00],
                     [ 1.35982761E+01,  1.81660181E-02, -6.17883483E-06,
                       9.56063119E-10, -5.53506009E-14, -3.15880412E+04,
                      -4.51802380E+01])),
        note='SDT18')

species(name='C2H3CHO',
        atoms='O:1 H:4 C:3',
        thermo=(NASA([200.00, 1000.00],
                     [ 4.69868861E+00,  4.99965957E-03,  4.38587397E-05,
                      -6.12883900E-08,  2.48508985E-11, -1.00875286E+04,
                       7.29812046E+00]),
                NASA([1000.00, 6000.00],
                     [ 8.20654919E+00,  1.28492916E-02, -4.64285331E-06,
                       7.51738738E-10, -4.51298116E-14, -1.18838341E+04,
                      -1.49881933E+01])))

species(name='CH3OH',
        atoms='O:1 H:4 C:1',
        thermo=(NASA([298.00, 1000.00],
                     [ 3.66108629E+00,  3.78050479E-04,  2.45757569E-05,
                      -2.72736479E-08,  9.35484626E-12, -2.55776356E+04,
                       6.96921095E+00]),
                NASA([1000.00, 3000.00],
                     [ 1.20506556E+00,  1.52693588E-02, -7.35564052E-06,
                       1.74086533E-09, -1.63557134E-13, -2.52734175E+04,
                       1.77172879E+01])))

species(name='NC4H10',
        atoms='H:10 C:4',
        thermo=(NASA([300.00, 1200.00],
                     [ 8.88105072E-01,  3.94532739E-02, -6.72304979E-06,
                      -1.14312439E-08,  5.11318680E-12, -1.70669431E+04,
                       2.09389305E+01]),
                NASA([1200.00, 5000.00],
                     [ 1.05261257E+01,  2.36278824E-02, -7.87636536E-06,
                       1.15028147E-09, -6.02565645E-14, -2.05216024E+04,
                      -3.21395647E+01])),
        note='SDT18')

species(name='C3H4-a',
        atoms='H:4 C:3',
        thermo=(NASA([200.00, 1000.00],
                     [ 2.61304450E+00,  1.21225750E-02,  1.85398800E-05,
                      -3.45251490E-08,  1.53350790E-11,  2.15415670E+04,
                       1.02261390E+01]),
                NASA([1000.00, 6000.00],
                     [ 6.31687220E+00,  1.11337280E-02, -3.96293780E-06,
                       6.35642380E-10, -3.78755400E-14,  2.01174950E+04,
                      -1.09957660E+01])))

species(name='C3H4-p',
        atoms='H:4 C:3',
        thermo=(NASA([200.00, 1000.00],
                     [ 2.68038690E+00,  1.57996510E-02,  2.50705960E-06,
                      -1.36576230E-08,  6.61542850E-12,  2.08023740E+04,
                       9.87693510E+00]),
                NASA([1000.00, 6000.00],
                     [ 6.02524000E+00,  1.13365420E-02, -4.02233910E-06,
                       6.43760630E-10, -3.82996350E-14,  1.96209420E+04,
                      -8.60437850E+00])))

species(name='C5H813',
        atoms='H:8 C:5',
        thermo=(NASA([300.00, 1000.00],
                     [-1.75448700E+00,  5.99325100E-02, -4.98699200E-05,
                       2.10660500E-08, -3.00220200E-12,  7.39525500E+03,
                       3.25324500E+01]),
                NASA([1000.00, 5000.00],
                     [ 1.11110700E+01,  2.19044400E-02, -7.95763300E-06,
                       1.40965800E-09, -9.55831700E-14,  3.90574200E+03,
                      -3.34422600E+01])))

species(name='C5H814',
        atoms='H:8 C:5',
        thermo=(NASA([300.00, 1000.00],
                     [ 4.66799750E+00,  2.09310190E-02,  3.27915370E-05,
                      -5.08541490E-08,  1.91287370E-11,  9.01506680E+03,
                       6.20971300E+00]),
                NASA([1000.00, 4000.00],
                     [ 9.79997190E+00,  2.47976250E-02, -9.60012760E-06,
                       1.80146470E-09, -1.33791990E-13,  6.76894680E+03,
                      -2.46477230E+01])))

species(name='C2H5OH',
        atoms='O:1 H:6 C:2',
        thermo=(NASA([300.00, 1000.00],
                     [ 4.85869570E+00, -3.74017260E-03,  6.95553780E-05,
                      -8.86547960E-08,  3.51688350E-11, -2.99961320E+04,
                       4.80185450E+00]),
                NASA([1000.00, 5000.00],
                     [ 6.56243650E+00,  1.52042220E-02, -5.38967950E-06,
                       8.62250110E-10, -5.12897870E-14, -3.15256210E+04,
                      -9.47302020E+00])))

species(name='C2C5H10',
        atoms='H:10 C:5',
        thermo=(NASA([300.00, 1200.00],