# Reduced model for Hexane-air combustion, optimized for hot surface ignition
# Reference:  
# Reduction methodology for detailed kinetic mechanisms: application to 
# n-hexane-air hot surface ignition
# Coronel S., Melguizo-Gavilanes J., Davidenko D., Mével R. and Shepherd J.E.
# Proceedings of the Eleventh Asia-Pacific Conference on Combustion, 2017

units(length='cm', time='s', quantity='mol', act_energy='cal/mol')

ideal_gas(name='gas',
          elements="H C O N Ar",
          species="""NC6H14      O2          H2          CH4
                     C2H6        C2H4        CO          CO2
                     H           O           OH          HO2
                     H2O         H2O2        C3H6        CH2O
                     N2          HCO         CH3         CH3O
                     C2H3        C2H5        pC4H9       C6H13-1
                     C6H13-2     C6H13-3     NC3H7       CH2CHO
                     C3H5O       C3H5-a      C2H2        C5H10-1
                     C2H3CHO     CH3OH       CH2CO       CH3CHCO
                     CH2         C5H915      C4H8-1      CH3CHO
                     C2H5CHO     C6H12-2     HexCy5O2    Hex2O2H5j
                     C4H713      aCetOCH2    Hex2O2H5O2  Hex2O2
                     Hex2O2H4j   Hex2O2H4O2  Hex4O2H2*O  Hex5O2H2*O
                     CH3COCH2    C6H12-1     C6H12-3     CH3O2
                     CH3O2H      CH3CO       Hex3O2      Hex4O2H2j
                     Hex4O2H2O2  Hex2O2H4*O  C2H5COCH2""",
          reactions='all',
          transport='Mix',
          initial_state=state(temperature=300.0, pressure=OneAtm))

#-------------------------------------------------------------------------------
# Species data
#-------------------------------------------------------------------------------

species(name='NC6H14',
        atoms='H:14 C:6',
        thermo=(NASA([300.000, 1200.000],
                     [+1.90038413E+00, +5.14640294E-02, +7.91906421E-06, -3.47484905E-08, +1.31381393E-11, -2.29428369E+04, +2.05073363E+01]),
                NASA([1200.000, 5000.000],
                     [+2.28046470E+01, +2.09800119E-02, -3.53074129E-06, -5.46609072E-10, +1.47893745E-13, -3.07498496E+04, -9.58469533E+01])),
        note = 'Refit by JES 01-Jul-2018 22:02:54',
        transport=gas_transport(geom='nonlinear',
                                diam=5.946,
                                well_depth=427.4,
                                rot_relax=1.0))

species(name='O2',
        atoms='O:2',
        thermo=(NASA([200.00, 1000.00],
                     [ 3.78245636E+00, -2.99673416E-03,  9.84730201E-06,
                      -9.68129509E-09,  3.24372837E-12, -1.06394356E+03,
                       3.65767573E+00]),
                NASA([1000.00, 6000.00],
                     [ 3.66096065E+00,  6.56365811E-04, -1.41149627E-07,
                       2.05797935E-11, -1.29913436E-15, -1.21597718E+03,
                       3.41536279E+00])),
        transport=gas_transport(geom='linear',
                                diam=3.458,
                                well_depth=107.4,
                                polar=1.6,
                                rot_relax=3.8))

species(name='H2',
        atoms='H:2',
        thermo=(NASA([300.00, 1000.00],
                     [ 3.29812000E+00,  8.24940000E-04, -8.14300000E-07,
                      -9.47500000E-11,  4.13490000E-13, -1.01250000E+03,
                      -3.29400000E+00]),
                NASA([1000.00, 5000.00],
                     [ 2.99142000E+00,  7.00060000E-04, -5.63400000E-08,
                      -9.23000000E-12,  1.58000000E-15, -8.35000000E+02,
                      -1.35500000E+00])),
        transport=gas_transport(geom='linear',
                                diam=2.92,
                                well_depth=38.0,
                                polar=0.79,
                                rot_relax=280.0))

species(name = "CH4",
        atoms = " H:4 C:1",
        thermo=(NASA([300.000, 1200.000],
                     [+2.62045814E+00, +3.76147235E-03, +7.27939329E-06, -6.59009253E-09, +1.56167384E-12, -1.00081602E+04, +6.05753345E+00]),
                NASA([1200.000, 5000.000],
                     [+1.68327896E+00, +1.02375796E-02, -3.87532085E-06, +6.78603752E-10, -4.50335256E-14, -1.00897189E+04, +9.60841931E+00])),
        note = 'Refit by JES 01-Jul-2018 22:02:54',
        transport=gas_transport(geom='nonlinear',
                                diam=3.746,
                                well_depth=141.4,
                                polar=2.6,
                                rot_relax=13.0))

species(name='C2H6',
        atoms='H:6 C:2',
        thermo=(NASA([300.000, 1200.000],
                     [+1.59004225E+00, +1.47238456E-02, +7.10969437E-06, -1.31224038E-08, +4.40700730E-12, -1.12535376E+04, +1.38814487E+01]),
                NASA([1200.000, 5000.000],
                     [+4.82572271E+00, +1.38407971E-02, -4.55746628E-06, +6.72547289E-10, -3.59838106E-14, -1.27204606E+04, -5.24240574E+00])),
        note = 'Refit by JES 01-Jul-2018 22:02:55',
        transport=gas_transport(geom='nonlinear',
                                diam=4.302,
                                well_depth=252.3,
                                rot_relax=1.5))

species(name='C2H4',
        atoms='H:4 C:2',
        thermo=(NASA([200.00, 1000.00],
                     [ 3.95920063E+00, -7.57051373E-03,  5.70989993E-05,
                      -6.91588352E-08,  2.69884190E-11,  5.08977598E+03,
                       4.09730213E+00]),
                NASA([1000.00, 6000.00],
                     [ 3.99182724E+00,  1.04833908E-02, -3.71721342E-06,
                       5.94628366E-10, -3.53630386E-14,  4.26865851E+03,
                      -2.69081762E-01])),
        transport=gas_transport(geom='nonlinear',
                                diam=3.971,
                                well_depth=280.8,
                                rot_relax=1.5))

species(name='CO',
        atoms='C:1 O:1',
        thermo=(NASA([200.00, 1000.00],
                     [ 3.57953350E+00, -6.10353690E-04,  1.01681430E-06,
                       9.07005860E-10, -9.04424490E-13, -1.43440860E+04,
                       3.50840930E+00]),
                NASA([1000.00, 6000.00],
                     [ 3.04848590E+00,  1.35172810E-03, -4.85794050E-07,
                       7.88536440E-11, -4.69807460E-15, -1.42661170E+04,
                       6.01709770E+00])),
        transport=gas_transport(geom='linear',
                                diam=3.65,
                                well_depth=98.1,
                                polar=1.95,
                                rot_relax=1.8))

species(name='CO2',
        atoms='C:1 O:2',
        thermo=(NASA([200.00, 1000.00],
                     [ 2.35681300E+00,  8.98412990E-03, -7.12206320E-06,
                       2.45730080E-09, -1.42885480E-13, -4.83719710E+04,
                       9.90090350E+00]),
                NASA([1000.00, 6000.00],
                     [ 4.63651110E+00,  2.74145690E-03, -9.95897590E-07,
                       1.60386660E-10, -9.16198570E-15, -4.90249040E+04,
                      -1.93489550E+00])),
        transport=gas_transport(geom='linear',
                                diam=3.763,
                                well_depth=244.0,
                                polar=2.65,
                                rot_relax=2.1))

species(name='H',
        atoms='H:1',
        thermo=(NASA([300.00, 1000.00],
                     [ 2.50000000E+00,  0.00000000E+00,  0.00000000E+00,
                       0.00000000E+00,  0.00000000E+00,  2.54716000E+04,
                      -4.60000000E-01]),
                NASA([1000.00, 5000.00],
                     [ 2.50000000E+00,  0.00000000E+00,  0.00000000E+00,
                       0.00000000E+00,  0.00000000E+00,  2.54716000E+04,
                      -4.60000000E-01])),
        transport=gas_transport(geom='atom',
                                diam=2.05,
                                well_depth=145.0))

species(name='O',
        atoms='O:1',
        thermo=(NASA([300.00, 1000.00],
                     [ 2.94643000E+00, -1.63817000E-03,  2.42103000E-06,
                      -1.60284000E-09,  3.89070000E-13,  2.91476000E+04,
                       2.96400000E+00]),
                NASA([1000.00, 5000.00],
                     [ 2.54206000E+00, -2.75500000E-05, -3.10000000E-09,
                       4.55000000E-12, -4.40000000E-16,  2.92308000E+04,
                       4.92000000E+00])),
        transport=gas_transport(geom='atom',
                                diam=2.75,
                                well_depth=80.0))

species(name='OH',
        atoms='H:1 O:1',
        thermo=(NASA([200.00, 1000.00],
                     [ 3.99198424E+00, -2.40106655E-03,  4.61664033E-06,
                      -3.87916306E-09,  1.36319502E-12,  3.36889836E+03,
                      -1.03998477E-01]),
                NASA([1000.00, 6000.00],
                     [ 2.83853033E+00,  1.10741289E-03, -2.94000209E-07,
                       4.20698729E-11, -2.42289890E-15,  3.69780808E+03,
                       5.84494652E+00])),
        transport=gas_transport(geom='linear',
                                diam=2.75,
                                well_depth=80.0))

species(name='HO2',
        atoms='H:1 O:2',
        thermo=(NASA([200.00, 1000.00],
                     [ 4.30179807E+00, -4.74912097E-03,  2.11582905E-05,
                      -2.42763914E-08,  9.29225225E-12,  2.64018485E+02,
                       3.71666220E+00]),
                NASA([1000.00, 5000.00],
                     [ 4.17228741E+00,  1.88117627E-03, -3.46277286E-07,
                       1.94657549E-11,  1.76256905E-16,  3.10206839E+01,
                       2.95767672E+00])),
        transport=gas_transport(geom='nonlinear',
                                diam=3.458,
                                well_depth=107.4,
                                rot_relax=1.0))

species(name='H2O',
        atoms='H:2 O:1',
        thermo=(NASA([200.00, 1000.00],
                     [ 4.19863520E+00, -2.03640170E-03,  6.52034160E-06,
                      -5.48792690E-09,  1.77196800E-12, -3.02937260E+04,
                      -8.49009010E-01]),
                NASA([1000.00, 6000.00],
                     [ 2.67703890E+00,  2.97318160E-03, -7.73768890E-07,
                       9.44335140E-11, -4.26899910E-15, -2.98858940E+04,
                       6.88255000E+00])),
        transport=gas_transport(geom='nonlinear',
                                diam=2.605,
                                well_depth=572.4,
                                dipole=1.844,
                                rot_relax=4.0))

species(name='H2O2',
        atoms='H:2 O:2',
        thermo=(NASA([200.00, 1000.00],
                     [ 4.31515149E+00, -8.47390622E-04,  1.76404323E-05,
                      -2.26762944E-08,  9.08950158E-12, -1.77067437E+04,
                       3.27373319E+00]),
                NASA([1000.00, 6000.00],
                     [ 4.57977305E+00,  4.05326003E-03, -1.29844730E-06,
                       1.98211400E-10, -1.13968792E-14, -1.80071775E+04,
                       6.64970694E-01])),
        transport=gas_transport(geom='nonlinear',
                                diam=3.458,
                                well_depth=107.4,
                                rot_relax=3.8))

species(name='C3H6',
        atoms='H:6 C:3',
        thermo=(NASA([298.00, 1000.00],
                     [ 1.28764269E+00,  2.25006139E-02, -4.53932009E-07,
                      -1.09681215E-08,  4.87404921E-12,  9.61516107E+02,
                       1.81216778E+01]),
                NASA([1000.00, 3000.00],
                     [ 1.64278374E+00,  2.54878392E-02, -1.26572609E-05,
                       3.05815725E-09, -2.91267032E-13,  7.07032253E+02,
                       1.53987922E+01])),
        transport=gas_transport(geom='nonlinear',
                                diam=4.982,
                                well_depth=266.8,
                                rot_relax=1.0))

species(name='CH2O',
        atoms='H:2 C:1 O:1',
        thermo=(NASA([200.00, 1000.00],
                     [ 4.79372312E+00, -9.90833322E-03,  3.73219990E-05,
                      -3.79285237E-08,  1.31772641E-11, -1.43227879E+04,
                       6.02798058E-01]),
                NASA([1000.00, 6000.00],
                     [ 3.16952665E+00,  6.19320560E-03, -2.25056366E-06,
                       3.65975660E-10, -2.20149458E-14, -1.44922756E+04,
                       6.04207898E+00])),
        transport=gas_transport(geom='nonlinear',
                                diam=3.59,
                                well_depth=498.0,
                                rot_relax=2.0))

species(name='N2',
        atoms='N:2',
        thermo=(NASA([200.00, 1000.00],
                     [ 3.53100528E+00, -1.23660988E-04, -5.02999433E-07,
                       2.43530612E-09, -1.40881235E-12, -1.04697628E+03,
                       2.96747038E+00]),
                NASA([1000.00, 6000.00],
                     [ 2.95257637E+00,  1.39690040E-03, -4.92631603E-07,
                       7.86010195E-11, -4.60755204E-15, -9.23948688E+02,
                       5.87188762E+00])),
        transport=gas_transport(geom='linear',
                                diam=3.621,
                                well_depth=97.53,
                                polar=1.76,
                                rot_relax=4.0))

species(name='HCO',
        atoms='H:1 C:1 O:1',
        thermo=(NASA([200.00, 1000.00],
                     [ 4.23754610E+00, -3.32075257E-03,  1.40030264E-05,
                      -1.34239995E-08,  4.37416208E-12,  3.87241185E+03,
                       3.30834869E+00]),
                NASA([1000.00, 6000.00],
                     [ 3.92001542E+00,  2.52279324E-03, -6.71004164E-07,
                       1.05615948E-10, -7.43798261E-15,  3.65342928E+03,
                       3.58077056E+00])),
        transport=gas_transport(geom='nonlinear',
                                diam=3.59,
                                well_depth=498.0))

species(name='CH3',
        atoms='H:3 C:1',
        thermo=(NASA([200.00, 1000.00],
                     [ 3.65717970E+00,  2.12659790E-03,  5.45838830E-06,
                      -6.61810030E-09,  2.46570740E-12,  1.64227160E+04,
                       1.67353540E+00]),
                NASA([1000.00, 6000.00],
                     [ 2.97812060E+00,  5.79785200E-03, -1.97558000E-06,
                       3.07297900E-10, -1.79174160E-14,  1.65095130E+04,
                       4.72247990E+00])),
        transport=gas_transport(geom='linear',
                                diam=3.8,
                                well_depth=144.0))

species(name='CH3O',
        atoms='H:3 C:1 O:1',
        thermo=(NASA([298.00, 1000.00],
                     [ 2.05790201E+00,  9.53454644E-03,  2.56323913E-06,
                      -7.59370108E-09,  3.02439392E-12,  1.41480580E+03,
                       1.27986825E+01]),
                NASA([1000.00, 3000.00],
                     [ 1.84600348E+00,  1.27916998E-02, -6.49261849E-06,
                       1.59518222E-09, -1.53886597E-13,  1.35518213E+03,
                       1.32648102E+01])),
        transport=gas_transport(geom='nonlinear',
                                diam=3.69,
                                well_depth=417.0,
                                dipole=1.7,
                                rot_relax=2.0))

species(name='C2H3',
        atoms='H:3 C:2',
        thermo=(NASA([200.00, 1000.00],
                     [ 3.36377642E+00,  2.65765722E-04,  2.79620704E-05,
                      -3.72986942E-08,  1.51590176E-11,  3.44749589E+04,
                       7.91510092E+00]),
                NASA([1000.00, 6000.00],
                     [ 4.15026763E+00,  7.54021341E-03, -2.62997847E-06,
                       4.15974048E-10, -2.45407509E-14,  3.38566380E+04,
                       1.72812235E+00])),
        transport=gas_transport(geom='nonlinear',
                                diam=4.1,
                                well_depth=209.0,
                                rot_relax=1.0))

species(name='C2H5',
        atoms='H:5 C:2',
        thermo=(NASA([200.00, 1000.00],
                     [ 4.24185905E+00, -3.56905235E-03,  4.82667202E-05,
                      -5.85401009E-08,  2.25804514E-11,  1.29690344E+04,
                       4.44703782E+00]),
                NASA([1000.00, 6000.00],
                     [ 4.32195633E+00,  1.23930542E-02, -4.39680960E-06,
                       7.03519917E-10, -4.18435239E-14,  1.21759475E+04,
                       1.71103809E-01])),
        transport=gas_transport(geom='nonlinear',
                                diam=4.302,
                                well_depth=252.3,
                                rot_relax=1.5))

species(name='pC4H9',
        atoms='H:9 C:4',
        thermo=(NASA([300.00, 1000.00],
                     [ 4.78067680E+00,  1.57317860E-02,  4.23254820E-05,
                      -5.98880090E-08,  2.23184580E-11,  5.60542270E+03,
                       5.69532600E+00]),
                NASA([1000.00, 5000.00],
                     [ 1.11195430E+01,  1.90903900E-02, -5.78352990E-06,
                       8.98735530E-10, -5.67455490E-14,  2.90194590E+03,
                      -3.20645580E+01])),
        transport=gas_transport(geom='nonlinear',
                                diam=5.176,
                                well_depth=357.0,
                                rot_relax=1.0))

species(name='C6H13-1',
        atoms='H:13 C:6',
        thermo=(NASA([300.00, 1397.00],
                     [-4.11980200E-01,  7.11864090E-02, -4.50993530E-05,
                       1.32188840E-08, -1.13761730E-12, -3.63104310E+02,
                       3.14650890E+01]),
                NASA([1397.00, 5000.00],
                     [ 2.13120310E+01,  2.15031930E-02, -5.19469280E-06,
                       5.90399780E-10, -2.56016730E-14, -7.65437100E+03,
                      -8.49757780E+01])),
        transport=gas_transport(geom='nonlinear',
                                diam=5.87,
                                well_depth=422.5,
                                rot_relax=1.0))

species(name='C6H13-2',
        atoms='H:13 C:6',
        thermo=(NASA([300.00, 1000.00],
                     [ 7.98796610E+00,  1.60369500E-02,  7.82382840E-05,
                      -1.01980930E-07,  3.70680330E-11, -2.33886230E+03,
                      -4.41164840E+00]),
                NASA([1000.00, 5000.00],
                     [ 1.60684710E+01,  2.89524660E-02, -8.99129380E-06,
                       1.40966010E-09, -8.89975830E-14, -6.21684010E+03,
                      -5.47047980E+01])),
        transport=gas_transport(geom='nonlinear',
                                diam=5.87,
                                well_depth=422.5,
                                rot_relax=1.0))

species(name='C6H13-3',
        atoms='H:13 C:6',
        thermo=(NASA([300.00, 1000.00],
                     [ 7.24923800E+00,  2.12583280E-02,  6.70945020E-05,
                      -9.25063840E-08,  3.41994440E-11, -2.25405060E+03,
                      -1.34249520E+00]),
                NASA([1000.00, 5000.00],
                     [ 1.62123410E+01,  2.86566380E-02, -8.87904750E-06,
                       1.39337250E-09, -8.81756410E-14, -6.20920750E+03,
                      -5.53969690E+01])),
        transport=gas_transport(geom='nonlinear',
                                diam=5.87,
                                well_depth=422.5,
                                rot_relax=1.0))

species(name='NC3H7',
        atoms='H:7 C:3',
        thermo=(NASA([200.00, 1000.00],
                     [ 4.08211458E+00,  5.23240341E-03,  5.13554466E-05,
                      -6.99343598E-08,  2.81819493E-11,  1.04074558E+04,
                       8.39534919E+00]),
                NASA([1000.00, 6000.00],
                     [ 6.49636579E+00,  1.77337992E-02, -6.24898046E-06,
                       9.95389495E-10, -5.90199770E-14,  8.85973885E+03,
                      -8.56389710E+00])),
        transport=gas_transport(geom='nonlinear',
                                diam=4.982,
                                well_depth=266.8,
                                rot_relax=1.0))

species(name='CH2CHO',
        atoms='H:3 C:2 O:1',
        thermo=(NASA([300.000, 1580.000],
                     [+1.70734488E+00, +1.92865533E-02, -1.19882627E-05, +3.56307224E-09, -4.01326855E-13, +3.02998466E+02, +1.54216902E+01]),
                NASA([1580.000, 5000.000],
                     [+7.59489106E+00, +6.87919874E-03, -2.41190949E-06, +3.80732634E-10, -2.23471866E-14, -1.89140814E+03, -1.66971366E+01])),
        note = 'Refit by JES 01-Jul-2018 22:02:55',
        transport=gas_transport(geom='nonlinear',
                                diam=3.97,
                                well_depth=436.0,
                                rot_relax=2.0))

species(name='C3H5O',
        atoms='H:5 C:3 O:1',
        thermo=(NASA([300.00, 1000.00],
                     [ 3.06991800E+00,  1.55214400E-02,  1.88183000E-05,
                      -3.30195400E-08,  1.36493400E-11,  9.41754900E+03,
                       1.34223900E+01]),
                NASA([1000.00, 5000.00],
                     [ 6.94951800E+00,  1.60789000E-02, -5.98468100E-06,
                       1.06835200E-09, -7.26290200E-14,  7.74929900E+03,
                      -9.46503900E+00])),
        transport=gas_transport(geom='nonlinear',
                                diam=4.82,
                                well_depth=411.0,
                                rot_relax=1.0))

species(name='C3H5-a',
        atoms='H:5 C:3',
        thermo=(NASA([300.00, 1000.00],
                     [ 1.46980360E+00,  1.90343650E-02,  1.44804250E-05,
                      -3.54686520E-08,  1.66475940E-11,  1.83258310E+04,
                       1.67241140E+01]),
                NASA([1000.00, 5000.00],
                     [ 7.00945680E+00,  1.31066290E-02, -4.65334420E-06,
                       7.45143230E-10, -4.43500510E-14,  1.64129090E+04,
                      -1.39461140E+01])),
        transport=gas_transport(geom='nonlinear',
                                diam=4.982,
                                well_depth=266.8,
                                rot_relax=1.0))

species(name='C2H2',
        atoms='H:2 C:2',
        thermo=(NASA([300.00, 1000.00],
                     [ 2.01356000E+00,  1.51904500E-02, -1.61631900E-05,
                       9.07899000E-09, -1.91275000E-12,  2.61244000E+04,
                       8.80500000E+00]),
                NASA([1000.00, 5000.00],
                     [ 4.43677000E+00,  5.37604000E-03, -1.91282000E-06,
                       3.28640000E-10, -2.15700000E-14,  2.56677000E+04,
                      -2.80000000E+00])),
        transport=gas_transport(geom='linear',
                                diam=4.1,
                                well_depth=209.0,
                                rot_relax=2.5))

species(name='C5H10-1',
        atoms='H:10 C:5',
        thermo=(NASA([300.000, 1590.000],
                     [-9.42526750E-01, +5.66699910E-02, -3.59625571E-05, +1.16092880E-08, -1.51511633E-12, -4.47877572E+03, +3.17594418E+01]),
                NASA([1590.000, 5000.000],
                     [+1.45844785E+01, +2.24082212E-02, -7.63397099E-06, +1.18199352E-09, -6.84463879E-14, -1.00946891E+04, -5.23703095E+01])),
        note = 'Refit by JES 01-Jul-2018 22:02:55',
        transport=gas_transport(geom='nonlinear',
                                diam=5.489,
                                well_depth=386.2,
                                dipole=0.4,
                                rot_relax=1.0))

species(name='C2H3CHO',
        atoms='H:4 C:3 O:1',
        thermo=(NASA([200.00, 1000.00],
                     [ 4.69868861E+00,  4.99965957E-03,  4.38587397E-05,
                      -6.12883900E-08,  2.48508985E-11, -1.00875286E+04,
                       7.29812046E+00]),
                NASA([1000.00, 6000.00],
                     [ 8.20654919E+00,  1.28492916E-02, -4.64285331E-06,
                       7.51738738E-10, -4.51298116E-14, -1.18838341E+04,
                      -1.49881933E+01])),
        transport=gas_transport(geom='nonlinear',
                                diam=4.958,
                                well_depth=428.8,
                                dipole=2.9,
                                rot_relax=1.0))

species(name='CH3OH',
        atoms='H:4 C:1 O:1',
        thermo=(NASA([298.00, 1000.00],
                     [ 3.66108629E+00,  3.78050479E-04,  2.45757569E-05,
                      -2.72736479E-08,  9.35484626E-12, -2.55776356E+04,
                       6.96921095E+00]),
                NASA([1000.00, 3000.00],
                     [ 1.20506556E+00,  1.52693588E-02, -7.35564052E-06,
                       1.74086533E-09, -1.63557134E-13, -2.52734175E+04,
                       1.77172879E+01])),
        transport=gas_transport(geom='nonlinear',
                                diam=3.626,
                                well_depth=481.8,
                                rot_relax=1.0))

species(name='CH2CO',
        atoms='H:2 C:2 O:1',
        thermo=(NASA([200.00, 1000.00],
                     [ 2.14011650E+00,  1.80883680E-02, -1.73242160E-05,
                       9.27674770E-09, -1.99150110E-12, -7.04305090E+03,
                       1.21986990E+01]),
                NASA([1000.00, 6000.00],
                     [ 5.75779010E+00,  6.34965070E-03, -2.25844070E-06,
                       3.62084620E-10, -2.15690300E-14, -7.97861130E+03,
                      -6.10640370E+00])),
        transport=gas_transport(geom='nonlinear',
                                diam=3.97,
                                well_depth=436.0,
                                rot_relax=2.0))

species(name='CH3CHCO',
        atoms='H:4 C:3 O:1',
        thermo=(NASA([300.00, 1000.00],
                     [ 4.64825790E+00, -8.33218940E-03,  5.09636370E-05,
                      -5.39550140E-08,  1.82660720E-11, -2.86545670E+03,
                      -7.64712850E+00]),
                NASA([1000.00, 5000.00],
                     [ 5.21994880E+00,  8.24123650E-03, -2.18678570E-06,
                       3.38790060E-10, -2.24267250E-14, -3.92280430E+03,
                      -1.51202540E+01])),
        transport=gas_transport(geom='nonlinear',
                                diam=4.12,
                                well_depth=443.2,
                                rot_relax=1.0))

species(name='CH2',
        atoms='H:2 C:1',
        thermo=(NASA([300.00, 1000.00],
                     [ 3.76224000E+00,  1.15982000E-03,  2.48960000E-07,
                       8.80080000E-10, -7.33240000E-13,  4.53679000E+04,
                       1.71258000E+00]),
                NASA([1000.00, 5000.00],
                     [ 3.63641000E+00,  1.93306000E-03, -1.68700000E-07,
                      -1.00990000E-10,  1.80800000E-14,  4.53413000E+04,
                       2.15656000E+00])),
        transport=gas_transport(geom='linear',
                                diam=3.8,
                                well_depth=144.0))

species(name='C5H915',
        atoms='H:9 C:5',
        thermo=(NASA([300.00, 1000.00],
                     [ 4.34137850E+00,  2.42579690E-02,  3.26285220E-05,
                      -5.46792040E-08,  2.12869330E-11,  1.76400750E+04,
                       9.43753060E+00]),
                NASA([1000.00, 5000.00],
                     [ 1.27471300E+01,  2.03871490E-02, -6.19353100E-06,
                       9.54352090E-10, -5.95025110E-14,  1.44713150E+04,
                      -3.85534100E+01])),
        transport=gas_transport(geom='nonlinear',
                                diam=5.458,
                                well_depth=396.8,
                                rot_relax=1.0))

species(name='C4H8-1',
        atoms='H:8 C:4',
        thermo=(NASA([298.00, 1000.00],
                     [ 6.15204393E-01,  3.72026724E-02, -1.33449440E-05,
                      -4.57144752E-09,  3.51271156E-12, -1.71741052E+03,
                       2.29019794E+01]),
                NASA([1000.00, 3000.00],
                     [ 2.68803264E+00,  3.39128117E-02, -1.68838433E-05,
                       4.08697395E-09, -3.89778146E-13, -2.34978274E+03,
                       1.17321815E+01])),
        transport=gas_transport(geom='nonlinear',
                                diam=5.176,
                                well_depth=357.0,
                                rot_relax=1.0))

species(name='CH3CHO',
        atoms='H:4 C:2 O:1',
        thermo=(NASA([200.00, 1000.00],
                     [ 4.72945950E+00, -3.19328580E-03,  4.75349210E-05,
                      -5.74586110E-08,  2.19311120E-11, -2.15728780E+04,
                       4.10301590E+00]),
                NASA([1000.00, 6000.00],
                     [ 5.40411080E+00,  1.17230590E-02, -4.22631370E-06,
                       6.83724510E-10, -4.09848630E-14, -2.25931220E+04,