"""
Acrolein and acetaldehyde optimized mechanism by Remy Mevel, last updated 2018.

References:

Chatelain, K. and Mevel, R. and Menon, S. and Blanquart, G. and
Shepherd, J.E., Ignition and chemical kinetics of acrolein-oxygen-argon mixtures
behind reflected shock waves, Fuel, 2014, Vol. 135, 498-508.

and

Mevel, R. and Chatelain, K. and Blanquart, G. and Shepherd, J.E.,
An updated reaction model for the high-temperature pyrolysis and oxidation of
acetaldehyde, Fuel, 2018, Vol. 217, 226-239.

"""

units(length='cm', time='s', quantity='mol', act_energy='cal/mol')

ideal_gas(name='gas',
          elements="N H O C Ar I Kr",
          species="""KR            OH*           CH*           CO2*
                     O             N2O           N             H
                     H2            O2            OH            HO2
                     H2O2          NH            NO            NH2
                     N2O3          HNO           NO2           NNH
                     NH3           N2H2          HONO          NO3
                     HNO3          N2H3          N2H4          N2O4
                     NH2OH         HNOH          H2NO          HNNO
                     AR            N2            H2O           CH4
                     CH3           T-CH2         S-CH2         CH
                     C             C2H6          C2H5          C2H4
                     C2H3          C2H2          H2C2          C2H
                     C2            C3H8          N-C3H7        I-C3H7
                     C3H6          A-C3H5        S-C3H5        T-C3H5
                     A-C3H4        P-C3H4        C3H3          C3H2
                     C4H6          I-C4H5        N-C4H5        C4H4
                     I-C4H3        N-C4H3        C4H2          CO
                     CO2           HCO           CH2O          CH2OH
                     CH3O          CH3O2         CH3OH         HCCO
                     HCCOH         CH2CO         C2H5O         CH3CHO
                     CH2CHO        C2O           C3H2O         C2H3CHO
                     C3H5O         C2H5O2        C4H           P-C4H9
                     P-C4H8        C4H7          I-C4H8        T-C4H9
                     T-C4H9O       CH3COCH3      I-C4H7        I-C3H5CHO
                     I-C4H7O       C2H3CO        CHCHCHO       CH2CCHO
                     CH3CHCHCHO    H2CN          HCN           HCNO
                     CNO           HNCO          NCO           HOCN
                     NCN           CN            C2N2          CH3NO2
                     CH3NO         CH3ONO2       H2CNO2        CH3ONO
                     C2H4O         CH3CO         C2H5OH        C2H3O
                     C2H5I         I             C2H3I         HI
                     I2            CH2CHOH       CHCHOH        CH3CHOH
                     CH3CH2CHOH    CH3CH(OH)CH2  CH3CHCH2""",
          reactions='all',
          initial_state=state(temperature=300.0, pressure=OneAtm))

#-------------------------------------------------------------------------------
# Species data
#-------------------------------------------------------------------------------

species(name='KR',
        atoms='Kr:1',
        thermo=(NASA([200.00, 1000.00],
                     [ 2.50000000E+00,  0.00000000E+00,  0.00000000E+00,
                       0.00000000E+00,  0.00000000E+00, -7.45375000E+02,
                       5.49095651E+00]),
                NASA([1000.00, 6000.00],
                     [ 2.50001436E+00, -2.78190281E-08,  1.74071629E-11,
                      -4.31400304E-15,  3.66743374E-19, -7.45380247E+02,
                       5.49087778E+00])),
        note='REFELEMENTg8/97')

species(name='OH*',
        atoms='O:1 H:1',
        thermo=(NASA([300.00, 1200.00],
                     [ 3.64731694E+00,  1.25257954E-04, -1.57633414E-06,
                       2.35110477E-09, -8.59505189E-13,  5.00201598E+04,
                       1.31534766E+00]),
                NASA([1200.00, 5000.00],
                     [ 2.88272162E+00,  1.01398847E-03, -2.27695660E-07,
                       2.17486548E-11, -5.12777544E-16,  5.03010210E+04,
                       5.59529841E+00])),
        note='SDT18')

species(name='CH*',
        atoms='C:1 H:1',
        thermo=(NASA([300.00, 1200.00],
                     [ 3.26787506E+00,  1.59455142E-03, -4.00091436E-06,
                       4.65503017E-09, -1.60491694E-12,  1.03930175E+05,
                       3.04708316E+00]),
                NASA([1200.00, 5000.00],
                     [ 2.19619188E+00,  2.34043357E-03, -7.05849639E-07,
                       9.00825919E-11, -3.85558568E-15,  1.04350881E+05,
                       9.17731364E+00])),
        note='SDT18')

species(name='CO2*',
        atoms='O:2 C:1',
        thermo=(NASA([200.00, 1000.00],
                     [ 2.35681300E+00,  8.98412990E-03, -7.12206320E-06,
                       2.45730080E-09, -1.42885480E-13, -3.73971000E+02,
                       9.90090350E+00]),
                NASA([1000.00, 6000.00],
                     [ 4.63651110E+00,  2.74145690E-03, -9.95897590E-07,
                       1.60386660E-10, -9.16198570E-15, -1.03030400E+03,
                      -1.93489550E+00])),
        note='L7/88')

species(name='O',
        atoms='O:1',
        thermo=(NASA([300.00, 1000.00],
                     [ 2.94642900E+00, -1.63816600E-03,  2.42103200E-06,
                      -1.60284300E-09,  3.89069600E-13,  2.91476400E+04,
                       2.96399500E+00]),
                NASA([1000.00, 5000.00],
                     [ 2.54206000E+00, -2.75506200E-05, -3.10280300E-09,
                       4.55106700E-12, -4.36805200E-16,  2.92308000E+04,
                       4.92030800E+00])),
        note='120186')

species(name='N2O',
        atoms='O:1 N:2',
        thermo=(NASA([300.00, 1000.00],
                     [ 2.54305800E+00,  9.49219300E-03, -9.79277500E-06,
                       6.26384500E-09, -1.90182600E-12,  8.76510000E+03,
                       9.51122200E+00]),
                NASA([1000.00, 5000.00],
                     [ 4.71897700E+00,  2.87371400E-03, -1.19749600E-06,
                       2.25055200E-10, -1.57533700E-14,  8.16581100E+03,
                      -1.65725000E+00])),
        note='121286')

species(name='N',
        atoms='N:1',
        thermo=(NASA([200.00, 1000.00],
                     [ 2.50000000E+00,  0.00000000E+00,  0.00000000E+00,
                       0.00000000E+00,  0.00000000E+00,  5.61046380E+04,
                       4.19390880E+00]),
                NASA([1000.00, 6000.00],
                     [ 2.41594290E+00,  1.74890650E-04, -1.19023690E-07,
                       3.02262440E-11, -2.03609830E-15,  5.61337750E+04,
                       4.64960950E+00])),
        note='L6/88')

species(name='H',
        atoms='H:1',
        thermo=(NASA([300.00, 1000.00],
                     [ 2.50000000E+00,  0.00000000E+00,  0.00000000E+00,
                       0.00000000E+00,  0.00000000E+00,  2.54716300E+04,
                      -4.60117600E-01]),
                NASA([1000.00, 5000.00],
                     [ 2.50000000E+00,  0.00000000E+00,  0.00000000E+00,
                       0.00000000E+00,  0.00000000E+00,  2.54716300E+04,
                      -4.60117600E-01])),
        note='120186')

species(name='H2',
        atoms='H:2',
        thermo=(NASA([300.00, 1000.00],
                     [ 3.29812400E+00,  8.24944200E-04, -8.14301500E-07,
                      -9.47543400E-11,  4.13487200E-13, -1.01252100E+03,
                      -3.29409400E+00]),
                NASA([1000.00, 5000.00],
                     [ 2.99142300E+00,  7.00064400E-04, -5.63382900E-08,
                      -9.23157800E-12,  1.58275200E-15, -8.35034000E+02,
                      -1.35511000E+00])),
        note='121286')

species(name='O2',
        atoms='O:2',
        thermo=(NASA([300.00, 1000.00],
                     [ 3.21293600E+00,  1.12748600E-03, -5.75615000E-07,
                       1.31387700E-09, -8.76855400E-13, -1.00524900E+03,
                       6.03473800E+00]),
                NASA([1000.00, 5000.00],
                     [ 3.69757800E+00,  6.13519700E-04, -1.25884200E-07,
                       1.77528100E-11, -1.13643500E-15, -1.23393000E+03,
                       3.18916600E+00])),
        note='121386')

species(name='OH',
        atoms='O:1 H:1',
        thermo=(NASA([300.00, 1000.00],
                     [ 3.63726600E+00,  1.85091000E-04, -1.67616500E-06,
                       2.38720300E-09, -8.43144200E-13,  3.60678200E+03,
                       1.35886000E+00]),
                NASA([1000.00, 5000.00],
                     [ 2.88273000E+00,  1.01397400E-03, -2.27687700E-07,
                       2.17468400E-11, -5.12630500E-16,  3.88688800E+03,
                       5.59571200E+00])),
        note='121286')

species(name='HO2',
        atoms='O:2 H:1',
        thermo=(NASA([200.00, 1000.00],
                     [ 4.30179801E+00, -4.74912051E-03,  2.11582891E-05,
                      -2.42763894E-08,  9.29225124E-12,  2.94808040E+02,
                       3.71666245E+00]),
                NASA([1000.00, 3500.00],
                     [ 4.01721090E+00,  2.23982013E-03, -6.33658150E-07,
                       1.14246370E-10, -1.07908535E-14,  1.11856713E+02,
                       3.78510215E+00])),
        note='L5/89')

species(name='H2O2',
        atoms='O:2 H:2',
        thermo=(NASA([300.00, 1000.00],
                     [ 3.38875400E+00,  6.56922600E-03, -1.48501300E-07,
                      -4.62580600E-09,  2.47151500E-12, -1.76631500E+04,
                       6.78536300E+00]),
                NASA([1000.00, 5000.00],
                     [ 4.57316700E+00,  4.33613600E-03, -1.47468900E-06,
                       2.34890400E-10, -1.43165400E-14, -1.80069600E+04,
                       5.01137000E-01])),
        note='120186')

species(name='NH',
        atoms='N:1 H:1',
        thermo=(NASA([300.00, 1000.00],
                     [ 3.33975800E+00,  1.25300900E-03, -3.49164600E-06,
                       4.21881200E-09, -1.55761800E-12,  4.18504700E+04,
                       2.50718100E+00]),
                NASA([1000.00, 5000.00],
                     [ 2.76024900E+00,  1.37534600E-03, -4.45191400E-07,
                       7.69279200E-11, -5.01759200E-15,  4.20782800E+04,
                       5.85719900E+00])),
        note='31387')

species(name='NO',
        atoms='O:1 N:1',
        thermo=(NASA([300.00, 1000.00],
                     [ 3.37654200E+00,  1.25306300E-03, -3.30275100E-06,
                       5.21781000E-09, -2.44626300E-12,  9.81796100E+03,
                       5.82959000E+00]),
                NASA([1000.00, 5000.00],
                     [ 3.24543500E+00,  1.26913800E-03, -5.01589000E-07,
                       9.16928300E-11, -6.27541900E-15,  9.80084000E+03,
                       6.41729400E+00])),
        note='121286')

species(name='NH2',
        atoms='N:1 H:2',
        thermo=(NASA([300.00, 1000.00],
                     [ 3.43249300E+00,  3.29954000E-03, -6.61360000E-06,
                       8.59094700E-09, -3.57204700E-12,  2.17722800E+04,
                       3.09011100E+00]),
                NASA([1000.00, 5000.00],
                     [ 2.96131100E+00,  2.93269900E-03, -9.06360000E-07,
                       1.61725700E-10, -1.20420000E-14,  2.19197700E+04,
                       5.77787800E+00])),
        note='121686')

species(name='N2O3',
        atoms='O:3 N:2',
        thermo=(NASA([200.00, 1000.00],
                     [ 5.81083964E+00,  1.43330962E-02, -1.96208597E-05,
                       1.73060735E-08, -6.46553954E-12,  8.19184453E+03,
                       1.20461321E+00]),
                NASA([1000.00, 6000.00],
                     [ 9.08583845E+00,  3.37756330E-03, -1.31583890E-06,
                       2.30762329E-10, -1.47151267E-14,  7.27160146E+03,
                      -1.55361904E+01])),
        note='L4/90')

species(name='HNO',
        atoms='O:1 N:1 H:1',
        thermo=(NASA([300.00, 1000.00],
                     [ 2.78440300E+00,  6.60964600E-03, -9.30022300E-06,
                       9.43798000E-09, -3.75314600E-12,  1.09187800E+04,
                       9.03562900E+00]),
                NASA([1000.00, 5000.00],
                     [ 3.61514400E+00,  3.21248600E-03, -1.26033700E-06,
                       2.26729800E-10, -1.53623600E-14,  1.06619100E+04,
                       4.81026400E+00])),
        note='121286')

species(name='NO2',
        atoms='O:2 N:1',
        thermo=(NASA([300.00, 1000.00],
                     [ 2.67060000E+00,  7.83850100E-03, -8.06386500E-06,
                       6.16171500E-09, -2.32015000E-12,  2.89629100E+03,
                       1.16120700E+01]),
                NASA([1000.00, 5000.00],
                     [ 4.68285900E+00,  2.46242900E-03, -1.04225900E-06,
                       1.97690200E-10, -1.39171700E-14,  2.26129200E+03,
                       9.88598500E-01])),
        note='121286')

species(name='NNH',
        atoms='N:2 H:1',
        thermo=(NASA([250.00, 1000.00],
                     [ 3.50134400E+00,  2.05358700E-03,  7.17041000E-07,
                       4.92134800E-10, -9.67117000E-13,  2.83334700E+04,
                       6.39183700E+00]),
                NASA([1000.00, 4000.00],
                     [ 4.41534200E+00,  1.61438800E-03, -1.63289400E-07,
                      -8.55984600E-11,  1.61479100E-14,  2.78802900E+04,
                       9.04288800E-01])),
        note='120186')

species(name='NH3',
        atoms='N:1 H:3',
        thermo=(NASA([300.00, 1000.00],
                     [ 2.20435200E+00,  1.01147600E-02, -1.46526500E-05,
                       1.44723500E-08, -5.32850900E-12, -6.52548800E+03,
                       8.12713800E+00]),
                NASA([1000.00, 5000.00],
                     [ 2.46190400E+00,  6.05916600E-03, -2.00497700E-06,
                       3.13600300E-10, -1.93831700E-14, -6.49327000E+03,
                       7.47209700E+00])),
        note='121386')

species(name='N2H2',
        atoms='N:2 H:2',
        thermo=(NASA([300.00, 1000.00],
                     [ 1.61799900E+00,  1.30631200E-02, -1.71571200E-05,
                       1.60560800E-08, -6.09363900E-12,  2.46752600E+04,
                       1.37946700E+01]),
                NASA([1000.00, 5000.00],
                     [ 3.37118500E+00,  6.03996800E-03, -2.30385400E-06,
                       4.06278900E-10, -2.71314400E-14,  2.41817200E+04,
                       4.98058500E+00])),
        note='121286')

species(name='HONO',
        atoms='O:2 N:1 H:1',
        thermo=(NASA([300.00, 1000.00],
                     [ 2.29041300E+00,  1.40992200E-02, -1.36787200E-05,
                       7.49878000E-09, -1.87690500E-12, -1.04319500E+04,
                       1.32807700E+01]),
                NASA([1000.00, 5000.00],
                     [ 5.48689300E+00,  4.21806500E-03, -1.64914300E-06,
                       2.97187700E-10, -2.02114800E-14, -1.12686500E+04,
                      -2.99700200E+00])),
        note='31787')

species(name='NO3',
        atoms='O:3 N:1',
        thermo=(NASA([300.00, 1000.00],
                     [ 1.22107600E+00,  1.87879700E-02, -1.34432100E-05,
                       1.27460100E-09,  1.35406000E-12,  7.47314400E+03,
                       1.84020300E+01]),
                NASA([1000.00, 5000.00],
                     [ 7.12030700E+00,  3.24622800E-03, -1.43161300E-06,
                       2.79705300E-10, -2.01300800E-14,  5.86447900E+03,
                      -1.21373000E+01])),
        note='121286')

species(name='HNO3',
        atoms='O:3 N:1 H:1',
        thermo=(NASA([300.00, 1000.00],
                     [ 1.35318500E+00,  2.22002500E-02, -1.97881200E-05,
                       8.77390800E-09, -1.65838400E-12, -1.73856300E+04,
                       1.85186800E+01]),
                NASA([1000.00, 5000.00],
                     [ 7.00384500E+00,  5.81149300E-03, -2.33378900E-06,
                       4.28881400E-10, -2.95938500E-14, -1.88995200E+04,
                      -1.04786300E+01])),
        note='121286')

species(name='N2H3',
        atoms='N:2 H:3',
        thermo=(NASA([300.00, 1000.00],
                     [ 3.17420400E+00,  4.71590700E-03,  1.33486700E-05,
                      -1.91968500E-08,  7.48756400E-12,  1.72727000E+04,
                       7.55722400E+00]),
                NASA([1000.00, 5000.00],
                     [ 4.44184600E+00,  7.21427100E-03, -2.49568400E-06,
                       3.92056500E-10, -2.29895000E-14,  1.66422100E+04,
                      -4.27520500E-01])),
        note='120186')

species(name='N2H4',
        atoms='N:2 H:4',
        thermo=(NASA([300.00, 1000.00],
                     [ 6.44260600E-02,  2.74973000E-02, -2.89945100E-05,
                       1.74524000E-08, -4.42228200E-12,  1.04519200E+04,
                       2.12778900E+01]),
                NASA([1000.00, 5000.00],
                     [ 4.97731700E+00,  9.59551900E-03, -3.54763900E-06,
                       6.12429900E-10, -4.02979500E-14,  9.34121900E+03,
                      -2.96299000E+00])),
        note='121286')

species(name='N2O4',
        atoms='O:4 N:2',
        thermo=(NASA([200.00, 1000.00],
                     [ 3.02002308E+00,  2.95904321E-02, -3.01342458E-05,
                       1.42360407E-08, -2.44100049E-12, -6.40040162E+02,
                       1.18059606E+01]),
                NASA([1000.00, 6000.00],
                     [ 1.15752899E+01,  4.01616086E-03, -1.57178323E-06,
                       2.68274309E-10, -1.66922019E-14, -2.92191226E+03,
                      -3.19488439E+01])),
        note='RUS89')

species(name='NH2OH',
        atoms='O:1 N:1 H:3',
        thermo=(NASA([200.00, 1000.00],
                     [ 2.67285464E+00,  1.13645347E-02, -4.92179546E-06,
                      -9.18041765E-11,  6.06669407E-13, -6.08956846E+03,
                       1.00068112E+01]),
                NASA([1000.00, 6000.00],
                     [ 3.98241375E+00,  7.99825642E-03, -2.74883544E-06,
                       4.22874218E-10, -2.42498273E-14, -6.44279418E+03,
                       3.22666600E+00])),
        note='WRA032798')

species(name='HNOH',
        atoms='O:1 N:1 H:2',
        thermo=(NASA([300.00, 1500.00],
                     [ 2.12527400E+00,  1.06628180E-02, -7.60258800E-06,
                       3.08164100E-09, -5.72649800E-13,  9.55354400E+03,
                       1.30967180E+01]),
                NASA([1500.00, 4000.00],
                     [ 6.39613400E+00,  1.82106700E-03, -1.87089100E-07,
                      -7.84447100E-11,  1.44485550E-14,  7.85961500E+03,
                      -1.04047850E+01])),
        note='102290')

species(name='H2NO',
        atoms='O:1 N:1 H:2',
        thermo=(NASA([300.00, 1500.00],
                     [ 2.53058900E+00,  8.59603500E-03, -5.47103000E-06,
                       2.27624900E-09, -4.64807300E-13,  6.86803000E+03,
                       1.12665060E+01]),
                NASA([1500.00, 4000.00],
                     [ 5.67334600E+00,  2.29883600E-03, -1.77444500E-07,
                      -1.10348180E-10,  1.85976200E-14,  5.56932500E+03,
                      -6.15354000E+00])),
        note='102290')

species(name='HNNO',
        atoms='O:1 N:2 H:1',
        thermo=(NASA([300.00, 1500.00],
                     [ 2.23829800E+00,  1.35919970E-02, -1.17987280E-05,
                       5.39297000E-09, -1.01085890E-12,  2.66025800E+04,
                       1.41367890E+01]),
                NASA([1500.00, 4000.00],
                     [ 6.99121700E+00,  1.87597000E-03, -2.12458400E-07,
                      -6.71047200E-11,  1.23050800E-14,  2.49756600E+04,
                      -1.12352290E+01])),
        note='103190')

species(name='AR',
        atoms='Ar:1',
        thermo=(NASA([300.00, 1000.00],
                     [ 2.50000000E+00,  0.00000000E+00,  0.00000000E+00,
                       0.00000000E+00,  0.00000000E+00, -7.45375000E+02,
                       4.36600100E+00]),
                NASA([1000.00, 5000.00],
                     [ 2.50000000E+00,  0.00000000E+00,  0.00000000E+00,
                       0.00000000E+00,  0.00000000E+00, -7.45375000E+02,
                       4.36600100E+00])),
        note='120186')

species(name='N2',
        atoms='N:2',
        thermo=(NASA([300.00, 1000.00],
                     [ 3.29867700E+00,  1.40824000E-03, -3.96322200E-06,
                       5.64151500E-09, -2.44485500E-12, -1.02090000E+03,
                       3.95037200E+00]),
                NASA([1000.00, 5000.00],
                     [ 2.92664000E+00,  1.48797700E-03, -5.68476100E-07,
                       1.00970400E-10, -6.75335100E-15, -9.22797700E+02,
                       5.98052800E+00])),
        note='121286')

species(name='H2O',
        atoms='O:1 H:2',
        thermo=(NASA([300.00, 1000.00],
                     [ 3.38684200E+00,  3.47498200E-03, -6.35469600E-06,
                       6.96858100E-09, -2.50658800E-12, -3.02081100E+04,
                       2.59023300E+00]),
                NASA([1000.00, 5000.00],
                     [ 2.67214600E+00,  3.05629300E-03, -8.73026000E-07,
                       1.20099600E-10, -6.39161800E-15, -2.98992100E+04,
                       6.86281700E+00])),
        note='20387')

species(name='CH4',
        atoms='C:1 H:4',
        thermo=(NASA([200.00, 1000.00],
                     [ 5.14911468E+00, -1.36622009E-02,  4.91453921E-05,
                      -4.84246767E-08,  1.66603441E-11, -1.02465983E+04,
                      -4.63848842E+00]),
                NASA([1000.00, 6000.00],
                     [ 1.65326226E+00,  1.00263099E-02, -3.31661238E-06,
                       5.36483138E-10, -3.14696758E-14, -1.00095936E+04,
                       9.90506283E+00])),
        note='g8/99')

species(name='CH3',
        atoms='C:1 H:3',
        thermo=(NASA([200.00, 1000.00],
                     [ 3.65717970E+00,  2.12659790E-03,  5.45838830E-06,
                      -6.61810030E-09,  2.46570740E-12,  1.64227160E+04,
                       1.67353540E+00]),
                NASA([1000.00, 6000.00],
                     [ 2.97812060E+00,  5.79785200E-03, -1.97558000E-06,
                       3.07297900E-10, -1.79174160E-14,  1.65095130E+04,
                       4.72247990E+00])),
        note='METHYLIU0702')

species(name='T-CH2',
        atoms='C:1 H:2',
        thermo=(NASA([200.00, 1000.00],
                     [ 3.76267867E+00,  9.68872143E-04,  2.79489841E-06,
                      -3.85091153E-09,  1.68741719E-12,  4.60040401E+04,
                       1.56253185E+00]),
                NASA([1000.00, 3500.00],
                     [ 2.87410113E+00,  3.65639292E-03, -1.40894597E-06,
                       2.60179549E-10, -1.87727567E-14,  4.62636040E+04,
                       6.17119324E+00])),
        note='LS/93')

species(name='S-CH2',
        atoms='C:1 H:2',
        thermo=(NASA([200.00, 1000.00],
                     [ 4.19860411E+00, -2.36661419E-03,  8.23296220E-06,
                      -6.68815981E-09,  1.94314737E-12,  5.04968163E+04,
                      -7.69118967E-01]),
                NASA([1000.00, 3500.00],
                     [ 2.29203842E+00,  4.65588637E-03, -2.01191947E-06,
                       4.17906000E-10, -3.39716365E-14,  5.09259997E+04,
                       8.62650169E+00])),
        note='LS/93')

species(name='CH',
        atoms='C:1 H:1',
        thermo=(NASA([200.00, 1000.00],
                     [ 3.48981665E+00,  3.23835541E-04, -1.68899065E-06,
                       3.16217327E-09, -1.40609067E-12,  7.07972934E+04,
                       2.08401108E+00]),
                NASA([1000.00, 3500.00],
                     [ 2.87846473E+00,  9.70913681E-04,  1.44445655E-07,
                      -1.30687849E-10,  1.76079383E-14,  7.10124364E+04,
                       5.48497999E+00])),
        note='TPIS79')

species(name='C',
        atoms='C:1',
        thermo=(NASA([200.00, 1000.00],
                     [ 2.55423955E+00, -3.21537724E-04,  7.33792245E-07,
                      -7.32234889E-10,  2.66521446E-13,  8.54438832E+04,
                       4.53130848E+00]),
                NASA([1000.00, 3500.00],
                     [ 2.49266888E+00,  4.79889284E-05, -7.24335020E-08,
                       3.74291029E-11, -4.87277893E-15,  8.54512953E+04,
                       4.80150373E+00])),
        note='L11/88')

species(name='C2H6',
        atoms='C:2 H:6',
        thermo=(NASA([200.00, 1000.00],
                     [ 4.29142492E+00, -5.50154270E-03,  5.99438288E-05,
                      -7.08466285E-08,  2.68685771E-11, -1.15222055E+04,
                       2.66682316E+00]),
                NASA([1000.00, 3500.00],
                     [ 1.07188150E+00,  2.16852677E-02, -1.00256067E-05,
                       2.21412001E-09, -1.90002890E-13, -1.14263932E+04,
                       1.51156107E+01])),
        note='L8/88')

species(name='C2H5',
        atoms='C:2 H:5',
        thermo=(NASA([200.00, 1000.00],
                     [ 4.30646568E+00, -4.18658892E-03,  4.97142807E-05,
                      -5.99126606E-08,  2.30509004E-11,  1.28416265E+04,
                       4.70720924E+00]),
                NASA([1000.00, 3500.00],
                     [ 1.95465642E+00,  1.73972722E-02, -7.98206668E-06,
                       1.75217689E-09, -1.49641576E-13,  1.28575200E+04,
                       1.34624343E+01])),
        note='L12/92')

species(name='C2H4',
        atoms='C:2 H:4',
        thermo=(NASA([200.00, 1000.00],
                     [ 3.95920148E+00, -7.57052247E-03,  5.70990292E-05,
                      -6.91588753E-08,  2.69884373E-11,  5.08977593E+03,
                       4.09733096E+00]),
                NASA([1000.00, 3500.00],
                     [ 2.03611116E+00,  1.46454151E-02, -6.71077915E-06,
                       1.47222923E-09, -1.25706061E-13,  4.93988614E+03,
                       1.03053693E+01])),
        note='L1/91')

species(name='C2H3',
        atoms='C:2 H:3',
        thermo=(NASA([200.00, 1000.00],
                     [ 3.21246645E+00,  1.51479162E-03,  2.59209412E-05,
                      -3.57657847E-08,  1.47150873E-11,  3.48598468E+04,
                       8.51054025E+00]),
                NASA([1000.00, 3500.00],
                     [ 3.01672400E+00,  1.03302292E-02, -4.68082349E-06,
                       1.01763288E-09, -8.62607041E-14,  3.46128739E+04,
                       7.78732378E+00])),
        note='L2/92')

species(name='C2H2',
        atoms='C:2 H:2',
        thermo=(NASA([200.00, 1000.00],
                     [ 8.08681094E-01,  2.33615629E-02, -3.55171815E-05,
                       2.80152437E-08, -8.50072974E-12,  2.64289807E+04,
                       1.39397051E+01]),
                NASA([1000.00, 3500.00],
                     [ 4.14756964E+00,  5.96166664E-03, -2.37294852E-06,
                       4.67412171E-10, -3.61235213E-14,  2.59359992E+04,
                      -1.23028121E+00])),
        note='L1/91')

species(name='H2C2',
        atoms='C:2 H:2',
        thermo=(NASA([200.00, 1000.00],
                     [ 3.28154830E+00,  6.97647910E-03, -2.38552440E-06,
                      -1.21044320E-09,  9.81895450E-13,  4.86217940E+04,
                       5.92039100E+00]),
                NASA([1000.00, 6000.00],
                     [ 4.27803400E+00,  4.75628040E-03, -1.63010090E-06,
                       2.54628060E-10, -1.48863790E-14,  4.83166880E+04,
                       6.40237010E-01])),
        note='L12/89')

species(name='C2H',
        atoms='C:2 H:1',
        thermo=(NASA([200.00, 1000.00],
                     [ 2.88965733E+00,  1.34099611E-02, -2.84769501E-05,
                       2.94791045E-08, -1.09331511E-11,  6.68393932E+04,
                       6.22296438E+00]),
                NASA([1000.00, 3500.00],
                     [ 3.16780652E+00,  4.75221902E-03, -1.83787077E-06,
                       3.04190252E-10, -1.77232770E-14,  6.71210650E+04,
                       6.63589475E+00])),
        note='L1/91')

species(name='C2',
        atoms='C:2',
        thermo=(NASA([300.00, 1000.00],
                     [ 6.99604500E+00, -7.40060100E-03,  3.23470300E-06,
                       4.80253500E-09, -3.29591700E-12,  9.89748700E+04,
                      -1.38622680E+01]),
                NASA([1000.00, 5000.00],
                     [ 4.13597800E+00,  6.53161800E-05,  1.83709900E-07,
                      -5.29508500E-11,  4.71213700E-15,  9.96727200E+04,
                       7.47292300E-01])))

species(name='C3H8',
        atoms='C:3 H:8',
        thermo=(NASA([300.00, 1200.00],
                     [ 4.63328044E-01,  3.02707210E-02, -4.98107073E-06,
                      -8.61581294E-09,  3.81150487E-12, -1.39150305E+04,
                       2.11201251E+01]),
                NASA([1200.00, 5000.00],
                     [ 7.53383893E+00,  1.88727422E-02, -6.27213187E-06,
                       9.14821315E-10, -4.78432927E-14, -1.64694698E+04,